/*--------------------------------*- C++ -*----------------------------------*\
| =========                 |                                                 |
| \\      /  F ield         | OpenFOAM: The Open Source CFD Toolbox           |
|  \\    /   O peration     | Version:  2406                                  |
|   \\  /    A nd           | Website:  www.openfoam.com                      |
|    \\/     M anipulation  |                                                 |
\*---------------------------------------------------------------------------*/
FoamFile
{
    version     2.0;
    format      ascii;
    arch        "LSB;label=32;scalar=64";
    class       featureEdgeMesh;
    location    "constant/triSurface";
    object      plate_inlet.eMesh;
}
// * * * * * * * * * * * * * * * * * * * * * * * * * * * * * * * * * * * * * //


// points:

156
(
(-0.003911999985575676 -0.01396199967712164 0.4350000023841858)
(-0.002950000111013651 -0.01419700030237436 0.4350000023841858)
(-0.001973999897018075 -0.0143649997189641 0.4350000023841858)
(-0.005776999983936548 -0.01329999975860119 0.4350000023841858)
(-0.004856000188738108 -0.01366300042718649 0.4350000023841858)
(-0.0009210000280290842 -0.01078900042921305 0.4350000023841858)
(-0.001462999964132905 -0.009978000074625015 0.4350000023841858)
(-0.0009899999713525176 -0.014465999789536 0.4350000023841858)
(0 -0.01449999958276749 0.4350000023841858)
(-0.0001100000008591451 -0.01133100036531687 0.4350000023841858)
(-0.001653000013902783 -0.009021000005304813 0.4350000023841858)
(-0.00915099959820509 -0.01124799996614456 0.4350000023841858)
(-0.008361999876797199 -0.01184600032866001 0.4350000023841858)
(-0.007534000091254711 -0.01238899957388639 0.4350000023841858)
(-0.006670999806374311 -0.01287399977445602 0.4350000023841858)
(0.000846999988425523 -0.01152100041508675 0.4350000023841858)
(0.0009899999713525176 -0.014465999789536 0.4350000023841858)
(0.001973999897018075 -0.0143649997189641 0.4350000023841858)
(-0.01184600032866001 -0.008361999876797199 0.4350000023841858)
(-0.01124799996614456 -0.00915099959820509 0.4350000023841858)
(-0.01059699989855289 -0.009897000156342983 0.4350000023841858)
(-0.009897000156342983 -0.01059699989855289 0.4350000023841858)
(-0.001462999964132905 -0.008065000176429749 0.4350000023841858)
(0.001803999999538064 -0.01133100036531687 0.4350000023841858)
(0.002950000111013651 -0.01419700030237436 0.4350000023841858)
(0.003911999985575676 -0.01396199967712164 0.4350000023841858)
(0.002614999888464808 -0.01078900042921305 0.4350000023841858)
(0.004856000188738108 -0.01366300042718649 0.4350000023841858)
(0.005776999983936548 -0.01329999975860119 0.4350000023841858)
(0.003157000057399273 -0.009978000074625015 0.4350000023841858)
(0.006670999806374311 -0.01287399977445602 0.4350000023841858)
(0.003347000107169151 -0.009021000005304813 0.4350000023841858)
(0.007534000091254711 -0.01238899957388639 0.4350000023841858)
(-0.0001100000008591451 -0.006711999885737896 0.4350000023841858)
(0.000846999988425523 -0.006521000061184168 0.4350000023841858)
(-0.01419700030237436 -0.002950000111013651 0.4350000023841858)
(-0.01396199967712164 -0.003911999985575676 0.4350000023841858)
(-0.01366300042718649 -0.004856000188738108 0.4350000023841858)
(-0.01329999975860119 -0.005776999983936548 0.4350000023841858)
(-0.01287399977445602 -0.006670999806374311 0.4350000023841858)
(-0.01238899957388639 -0.007534000091254711 0.4350000023841858)
(0.008361999876797199 -0.01184600032866001 0.4350000023841858)
(0.001803999999538064 -0.006711999885737896 0.4350000023841858)
(0.002272000070661306 -0.005524999927729368 0.4350000023841858)
(0.001460999948903918 -0.004982999991625547 0.4350000023841858)
(-0.0009210000280290842 -0.007253999821841717 0.4350000023841858)
(0.0009190000128000975 -0.004172000102698803 0.4350000023841858)
(-0.003382999915629625 0.0001469999988330528 0.4350000023841858)
(-0.00419399980455637 0.0006890000076964498 0.4350000023841858)
(-0.0143649997189641 0.001973999897018075 0.4350000023841858)
(-0.014465999789536 0.0009899999713525176 0.4350000023841858)
(-0.01449999958276749 -0 0.4350000023841858)
(-0.014465999789536 -0.0009899999713525176 0.4350000023841858)
(-0.0143649997189641 -0.001973999897018075 0.4350000023841858)
(-0.004736000206321478 0.001500000013038516 0.4350000023841858)
(0.003227999899536371 -0.005714999977499247 0.4350000023841858)
(0.002614999888464808 -0.007253999821841717 0.4350000023841858)
(0.0007280000136233866 -0.003215000033378601 0.4350000023841858)
(-0.01329999975860119 0.005776999983936548 0.4350000023841858)
(-0.01366300042718649 0.004856000188738108 0.4350000023841858)
(-0.01396199967712164 0.003911999985575676 0.4350000023841858)
(-0.01419700030237436 0.002950000111013651 0.4350000023841858)
(-0.004925999790430069 0.002456000074744225 0.4350000023841858)
(-0.002426000079140067 -4.400000034365803e-05 0.4350000023841858)
(0.00915099959820509 -0.01124799996614456 0.4350000023841858)
(0.0009190000128000975 -0.002258999971672893 0.4350000023841858)
(0.003157000057399273 -0.008065000176429749 0.4350000023841858)
(0.004184999968856573 -0.005524999927729368 0.4350000023841858)
(-0.001469000009819865 0.0001469999988330528 0.4350000023841858)
(-0.01124799996614456 0.00915099959820509 0.4350000023841858)
(-0.01184600032866001 0.008361999876797199 0.4350000023841858)
(-0.01238899957388639 0.007534000091254711 0.4350000023841858)
(-0.01287399977445602 0.006670999806374311 0.4350000023841858)
(-0.004736000206321478 0.003412999911233783 0.4350000023841858)
(0.009897000156342983 -0.01059699989855289 0.4350000023841858)
(0.004995999857783318 -0.004982999991625547 0.4350000023841858)
(0.001460999948903918 -0.001446999958716333 0.4350000023841858)
(-0.01059699989855289 0.009897000156342983 0.4350000023841858)
(-0.00419399980455637 0.004224000032991171 0.4350000023841858)
(-0.0006580000044777989 0.0006890000076964498 0.4350000023841858)
(0.01059699989855289 -0.009897000156342983 0.4350000023841858)
(-0.009897000156342983 0.01059699989855289 0.4350000023841858)
(0.002272000070661306 -0.0009059999720193446 0.4350000023841858)
(-0.0001160000028903596 0.001500000013038516 0.4350000023841858)
(0.01124799996614456 -0.00915099959820509 0.4350000023841858)
(0.005537999793887138 -0.004172000102698803 0.4350000023841858)
(-0.00915099959820509 0.01124799996614456 0.4350000023841858)
(-0.003382999915629625 0.004765999969094992 0.4350000023841858)
(0.003227999899536371 -0.0007149999728426337 0.4350000023841858)
(7.400000322377309e-05 0.002456000074744225 0.4350000023841858)
(0.01184600032866001 -0.008361999876797199 0.4350000023841858)
(-0.008361999876797199 0.01184600032866001 0.4350000023841858)
(0.005537999793887138 -0.002258999971672893 0.4350000023841858)
(0.005727999843657017 -0.003215000033378601 0.4350000023841858)
(-0.007534000091254711 0.01238899957388639 0.4350000023841858)
(0.007439000066369772 -0.002320999978110194 0.4350000023841858)
(0.006628000177443027 -0.001779000042006373 0.4350000023841858)
(0.004995999857783318 -0.001446999958716333 0.4350000023841858)
(0.006085999775677919 -0.0009679999784566462 0.4350000023841858)
(0.008395999670028687 -0.002511000027880073 0.4350000023841858)
(0.01238899957388639 -0.007534000091254711 0.4350000023841858)
(0.004184999968856573 -0.0009059999720193446 0.4350000023841858)
(0.005896000191569328 -1.100000008591451e-05 0.4350000023841858)
(-0.006670999806374311 0.01287399977445602 0.4350000023841858)
(0.009352000430226326 -0.002320999978110194 0.4350000023841858)
(0.01287399977445602 -0.006670999806374311 0.4350000023841858)
(0.006085999775677919 0.0009449999779462814 0.4350000023841858)
(0.01329999975860119 -0.005776999983936548 0.4350000023841858)
(-0.002426000079140067 0.00495600001886487 0.4350000023841858)
(-0.005776999983936548 0.01329999975860119 0.4350000023841858)
(-0.0001160000028903596 0.003412999911233783 0.4350000023841858)
(0.006628000177443027 0.001756999990902841 0.4350000023841858)
(-0.004856000188738108 0.01366300042718649 0.4350000023841858)
(0.01366300042718649 -0.004856000188738108 0.4350000023841858)
(0.01016299985349178 -0.001779000042006373 0.4350000023841858)
(-0.0006580000044777989 0.004224000032991171 0.4350000023841858)
(0.007439000066369772 0.00229800003580749 0.4350000023841858)
(-0.003911999985575676 0.01396199967712164 0.4350000023841858)
(0.01396199967712164 -0.003911999985575676 0.4350000023841858)
(-0.002950000111013651 0.01419700030237436 0.4350000023841858)
(0.01419700030237436 -0.002950000111013651 0.4350000023841858)
(0.0107049997895956 -0.0009679999784566462 0.4350000023841858)
(0.0143649997189641 -0.001973999897018075 0.4350000023841858)
(-0.001973999897018075 0.0143649997189641 0.4350000023841858)
(-0.001469000009819865 0.004765999969094992 0.4350000023841858)
(0.014465999789536 -0.0009899999713525176 0.4350000023841858)
(0.01089600007981062 -1.100000008591451e-05 0.4350000023841858)
(-0.0009899999713525176 0.014465999789536 0.4350000023841858)
(0.01449999958276749 0 0.4350000023841858)
(0 0.01449999958276749 0.4350000023841858)
(0.014465999789536 0.0009899999713525176 0.4350000023841858)
(0.0107049997895956 0.0009449999779462814 0.4350000023841858)
(0.0009899999713525176 0.014465999789536 0.4350000023841858)
(0.0143649997189641 0.001973999897018075 0.4350000023841858)
(0.001973999897018075 0.0143649997189641 0.4350000023841858)
(0.01419700030237436 0.002950000111013651 0.4350000023841858)
(0.01016299985349178 0.001756999990902841 0.4350000023841858)
(0.002950000111013651 0.01419700030237436 0.4350000023841858)
(0.003911999985575676 0.01396199967712164 0.4350000023841858)
(0.01396199967712164 0.003911999985575676 0.4350000023841858)
(0.004856000188738108 0.01366300042718649 0.4350000023841858)
(0.01366300042718649 0.004856000188738108 0.4350000023841858)
(0.009352000430226326 0.00229800003580749 0.4350000023841858)
(0.01329999975860119 0.005776999983936548 0.4350000023841858)
(0.005776999983936548 0.01329999975860119 0.4350000023841858)
(0.01287399977445602 0.006670999806374311 0.4350000023841858)
(0.006670999806374311 0.01287399977445602 0.4350000023841858)
(0.007534000091254711 0.01238899957388639 0.4350000023841858)
(0.01238899957388639 0.007534000091254711 0.4350000023841858)
(0.008395999670028687 0.002489000093191862 0.4350000023841858)
(0.008361999876797199 0.01184600032866001 0.4350000023841858)
(0.01184600032866001 0.008361999876797199 0.4350000023841858)
(0.01124799996614456 0.00915099959820509 0.4350000023841858)
(0.00915099959820509 0.01124799996614456 0.4350000023841858)
(0.009897000156342983 0.01059699989855289 0.4350000023841858)
(0.01059699989855289 0.009897000156342983 0.4350000023841858)
)


// edges:

156
(
(0 1)
(1 2)
(3 4)
(4 0)
(5 6)
(2 7)
(7 8)
(9 5)
(6 10)
(11 12)
(12 13)
(13 14)
(14 3)
(15 9)
(8 16)
(16 17)
(18 19)
(19 20)
(20 21)
(21 11)
(10 22)
(23 15)
(17 24)
(24 25)
(26 23)
(25 27)
(27 28)
(29 26)
(28 30)
(31 29)
(30 32)
(33 34)
(35 36)
(36 37)
(37 38)
(38 39)
(39 40)
(32 41)
(34 42)
(43 44)
(45 33)
(44 46)
(22 45)
(40 18)
(47 48)
(49 50)
(50 51)
(51 52)
(52 53)
(53 35)
(48 54)
(55 43)
(42 56)
(46 57)
(58 59)
(59 60)
(60 61)
(61 49)
(54 62)
(63 47)
(41 64)
(57 65)
(56 66)
(67 55)
(68 63)
(69 70)
(70 71)
(71 72)
(72 58)
(62 73)
(66 31)
(64 74)
(75 67)
(65 76)
(77 69)
(73 78)
(79 68)
(74 80)
(81 77)
(76 82)
(83 79)
(80 84)
(85 75)
(86 81)
(78 87)
(82 88)
(89 83)
(84 90)
(91 86)
(92 93)
(94 91)
(93 85)
(95 96)
(97 92)
(96 98)
(99 95)
(90 100)
(101 97)
(98 102)
(103 94)
(104 99)
(100 105)
(88 101)
(102 106)
(105 107)
(87 108)
(109 103)
(110 89)
(106 111)
(112 109)
(107 113)
(114 104)
(115 110)
(111 116)
(117 112)
(113 118)
(119 117)
(118 120)
(121 114)
(120 122)
(123 119)
(108 124)
(122 125)
(126 121)
(127 123)
(125 128)
(129 127)
(128 130)
(131 126)
(132 129)
(130 133)
(134 132)
(133 135)
(136 131)
(137 134)
(124 115)
(138 137)
(135 139)
(140 138)
(139 141)
(142 136)
(141 143)
(144 140)
(143 145)
(146 144)
(147 146)
(145 148)
(149 142)
(150 147)
(148 151)
(151 152)
(153 150)
(154 153)
(152 155)
(155 154)
(116 149)
)

// * * * * * * * * * * * * * * * * * * * * * * * * * * * * * * * * * * * * * //


// ************************************************************************* //
