/*--------------------------------*- C++ -*----------------------------------*\
| =========                 |                                                 |
| \\      /  F ield         | OpenFOAM: The Open Source CFD Toolbox           |
|  \\    /   O peration     | Version:  2406                                  |
|   \\  /    A nd           | Website:  www.openfoam.com                      |
|    \\/     M anipulation  |                                                 |
\*---------------------------------------------------------------------------*/
FoamFile
{
    version     2.0;
    format      ascii;
    arch        "LSB;label=32;scalar=64";
    class       featureEdgeMesh;
    location    "constant/triSurface";
    object      porous.eMesh;
}
// * * * * * * * * * * * * * * * * * * * * * * * * * * * * * * * * * * * * * //


// points:

128
(
(0.0107049997895956 0.0009449999779462814 0.4379999935626984)
(0.01089600007981062 -1.100000008591451e-05 0.4379999935626984)
(0.01089600007981062 -1.100000008591451e-05 0.4350000023841858)
(0.0107049997895956 0.0009449999779462814 0.4350000023841858)
(0.005537999793887138 -0.002258999971672893 0.4379999935626984)
(0.005727999843657017 -0.003215000033378601 0.4379999935626984)
(0.005727999843657017 -0.003215000033378601 0.4350000023841858)
(0.005537999793887138 -0.002258999971672893 0.4350000023841858)
(-0.0001160000028903596 0.003412999911233783 0.4379999935626984)
(7.400000322377309e-05 0.002456000074744225 0.4379999935626984)
(7.400000322377309e-05 0.002456000074744225 0.4350000023841858)
(-0.0001160000028903596 0.003412999911233783 0.4350000023841858)
(0.003157000057399273 -0.008065000176429749 0.4379999935626984)
(0.003347000107169151 -0.009021000005304813 0.4379999935626984)
(0.003347000107169151 -0.009021000005304813 0.4350000023841858)
(0.003157000057399273 -0.008065000176429749 0.4350000023841858)
(0.002614999888464808 -0.007253999821841717 0.4350000023841858)
(0.002614999888464808 -0.007253999821841717 0.4379999935626984)
(0.001803999999538064 -0.006711999885737896 0.4350000023841858)
(0.001803999999538064 -0.006711999885737896 0.4379999935626984)
(0.000846999988425523 -0.006521000061184168 0.4350000023841858)
(0.000846999988425523 -0.006521000061184168 0.4379999935626984)
(-0.0001100000008591451 -0.006711999885737896 0.4350000023841858)
(-0.0001100000008591451 -0.006711999885737896 0.4379999935626984)
(-0.0009210000280290842 -0.007253999821841717 0.4350000023841858)
(-0.0009210000280290842 -0.007253999821841717 0.4379999935626984)
(-0.001462999964132905 -0.008065000176429749 0.4350000023841858)
(-0.001462999964132905 -0.008065000176429749 0.4379999935626984)
(-0.001653000013902783 -0.009021000005304813 0.4350000023841858)
(-0.001653000013902783 -0.009021000005304813 0.4379999935626984)
(-0.001462999964132905 -0.009978000074625015 0.4350000023841858)
(-0.001462999964132905 -0.009978000074625015 0.4379999935626984)
(-0.0009210000280290842 -0.01078900042921305 0.4350000023841858)
(-0.0009210000280290842 -0.01078900042921305 0.4379999935626984)
(-0.0001100000008591451 -0.01133100036531687 0.4350000023841858)
(-0.0001100000008591451 -0.01133100036531687 0.4379999935626984)
(0.000846999988425523 -0.01152100041508675 0.4350000023841858)
(0.000846999988425523 -0.01152100041508675 0.4379999935626984)
(0.001803999999538064 -0.01133100036531687 0.4350000023841858)
(0.001803999999538064 -0.01133100036531687 0.4379999935626984)
(0.002614999888464808 -0.01078900042921305 0.4350000023841858)
(0.002614999888464808 -0.01078900042921305 0.4379999935626984)
(0.003157000057399273 -0.009978000074625015 0.4350000023841858)
(0.003157000057399273 -0.009978000074625015 0.4379999935626984)
(-0.0006580000044777989 0.004224000032991171 0.4350000023841858)
(-0.0006580000044777989 0.004224000032991171 0.4379999935626984)
(-0.001469000009819865 0.004765999969094992 0.4350000023841858)
(-0.001469000009819865 0.004765999969094992 0.4379999935626984)
(-0.002426000079140067 0.00495600001886487 0.4350000023841858)
(-0.002426000079140067 0.00495600001886487 0.4379999935626984)
(-0.003382999915629625 0.004765999969094992 0.4350000023841858)
(-0.003382999915629625 0.004765999969094992 0.4379999935626984)
(-0.00419399980455637 0.004224000032991171 0.4350000023841858)
(-0.00419399980455637 0.004224000032991171 0.4379999935626984)
(-0.004736000206321478 0.003412999911233783 0.4350000023841858)
(-0.004736000206321478 0.003412999911233783 0.4379999935626984)
(-0.004925999790430069 0.002456000074744225 0.4350000023841858)
(-0.004925999790430069 0.002456000074744225 0.4379999935626984)
(-0.004736000206321478 0.001500000013038516 0.4350000023841858)
(-0.004736000206321478 0.001500000013038516 0.4379999935626984)
(-0.00419399980455637 0.0006890000076964498 0.4350000023841858)
(-0.00419399980455637 0.0006890000076964498 0.4379999935626984)
(-0.003382999915629625 0.0001469999988330528 0.4350000023841858)
(-0.003382999915629625 0.0001469999988330528 0.4379999935626984)
(-0.002426000079140067 -4.400000034365803e-05 0.4350000023841858)
(-0.002426000079140067 -4.400000034365803e-05 0.4379999935626984)
(-0.001469000009819865 0.0001469999988330528 0.4350000023841858)
(-0.001469000009819865 0.0001469999988330528 0.4379999935626984)
(-0.0006580000044777989 0.0006890000076964498 0.4350000023841858)
(-0.0006580000044777989 0.0006890000076964498 0.4379999935626984)
(-0.0001160000028903596 0.001500000013038516 0.4350000023841858)
(-0.0001160000028903596 0.001500000013038516 0.4379999935626984)
(0.004995999857783318 -0.001446999958716333 0.4350000023841858)
(0.004995999857783318 -0.001446999958716333 0.4379999935626984)
(0.004184999968856573 -0.0009059999720193446 0.4350000023841858)
(0.004184999968856573 -0.0009059999720193446 0.4379999935626984)
(0.003227999899536371 -0.0007149999728426337 0.4350000023841858)
(0.003227999899536371 -0.0007149999728426337 0.4379999935626984)
(0.002272000070661306 -0.0009059999720193446 0.4350000023841858)
(0.002272000070661306 -0.0009059999720193446 0.4379999935626984)
(0.001460999948903918 -0.001446999958716333 0.4350000023841858)
(0.001460999948903918 -0.001446999958716333 0.4379999935626984)
(0.0009190000128000975 -0.002258999971672893 0.4350000023841858)
(0.0009190000128000975 -0.002258999971672893 0.4379999935626984)
(0.0007280000136233866 -0.003215000033378601 0.4350000023841858)
(0.0007280000136233866 -0.003215000033378601 0.4379999935626984)
(0.0009190000128000975 -0.004172000102698803 0.4350000023841858)
(0.0009190000128000975 -0.004172000102698803 0.4379999935626984)
(0.001460999948903918 -0.004982999991625547 0.4350000023841858)
(0.001460999948903918 -0.004982999991625547 0.4379999935626984)
(0.002272000070661306 -0.005524999927729368 0.4350000023841858)
(0.002272000070661306 -0.005524999927729368 0.4379999935626984)
(0.003227999899536371 -0.005714999977499247 0.4350000023841858)
(0.003227999899536371 -0.005714999977499247 0.4379999935626984)
(0.004184999968856573 -0.005524999927729368 0.4350000023841858)
(0.004184999968856573 -0.005524999927729368 0.4379999935626984)
(0.004995999857783318 -0.004982999991625547 0.4350000023841858)
(0.004995999857783318 -0.004982999991625547 0.4379999935626984)
(0.005537999793887138 -0.004172000102698803 0.4350000023841858)
(0.005537999793887138 -0.004172000102698803 0.4379999935626984)
(0.01016299985349178 0.001756999990902841 0.4350000023841858)
(0.01016299985349178 0.001756999990902841 0.4379999935626984)
(0.009352000430226326 0.00229800003580749 0.4350000023841858)
(0.009352000430226326 0.00229800003580749 0.4379999935626984)
(0.008395999670028687 0.002489000093191862 0.4350000023841858)
(0.008395999670028687 0.002489000093191862 0.4379999935626984)
(0.007439000066369772 0.00229800003580749 0.4350000023841858)
(0.007439000066369772 0.00229800003580749 0.4379999935626984)
(0.006628000177443027 0.001756999990902841 0.4350000023841858)
(0.006628000177443027 0.001756999990902841 0.4379999935626984)
(0.006085999775677919 0.0009449999779462814 0.4350000023841858)
(0.006085999775677919 0.0009449999779462814 0.4379999935626984)
(0.005896000191569328 -1.100000008591451e-05 0.4350000023841858)
(0.005896000191569328 -1.100000008591451e-05 0.4379999935626984)
(0.006085999775677919 -0.0009679999784566462 0.4350000023841858)
(0.006085999775677919 -0.0009679999784566462 0.4379999935626984)
(0.006628000177443027 -0.001779000042006373 0.4350000023841858)
(0.006628000177443027 -0.001779000042006373 0.4379999935626984)
(0.007439000066369772 -0.002320999978110194 0.4350000023841858)
(0.007439000066369772 -0.002320999978110194 0.4379999935626984)
(0.008395999670028687 -0.002511000027880073 0.4350000023841858)
(0.008395999670028687 -0.002511000027880073 0.4379999935626984)
(0.009352000430226326 -0.002320999978110194 0.4350000023841858)
(0.009352000430226326 -0.002320999978110194 0.4379999935626984)
(0.01016299985349178 -0.001779000042006373 0.4350000023841858)
(0.01016299985349178 -0.001779000042006373 0.4379999935626984)
(0.0107049997895956 -0.0009679999784566462 0.4350000023841858)
(0.0107049997895956 -0.0009679999784566462 0.4379999935626984)
)


// edges:

128
(
(0 1)
(2 3)
(4 5)
(6 7)
(8 9)
(10 11)
(12 13)
(14 15)
(15 16)
(17 12)
(16 18)
(19 17)
(18 20)
(21 19)
(20 22)
(23 21)
(22 24)
(25 23)
(24 26)
(27 25)
(26 28)
(29 27)
(28 30)
(31 29)
(30 32)
(33 31)
(32 34)
(35 33)
(34 36)
(37 35)
(36 38)
(39 37)
(38 40)
(41 39)
(40 42)
(43 41)
(13 43)
(42 14)
(11 44)
(45 8)
(44 46)
(47 45)
(46 48)
(49 47)
(48 50)
(51 49)
(50 52)
(53 51)
(52 54)
(55 53)
(54 56)
(57 55)
(56 58)
(59 57)
(58 60)
(61 59)
(60 62)
(63 61)
(62 64)
(65 63)
(64 66)
(67 65)
(66 68)
(69 67)
(68 70)
(71 69)
(9 71)
(70 10)
(7 72)
(73 4)
(72 74)
(75 73)
(74 76)
(77 75)
(76 78)
(79 77)
(78 80)
(81 79)
(80 82)
(83 81)
(82 84)
(85 83)
(84 86)
(87 85)
(86 88)
(89 87)
(88 90)
(91 89)
(90 92)
(93 91)
(92 94)
(95 93)
(94 96)
(97 95)
(96 98)
(99 97)
(5 99)
(98 6)
(3 100)
(101 0)
(100 102)
(103 101)
(102 104)
(105 103)
(104 106)
(107 105)
(106 108)
(109 107)
(108 110)
(111 109)
(110 112)
(113 111)
(112 114)
(115 113)
(114 116)
(117 115)
(116 118)
(119 117)
(118 120)
(121 119)
(120 122)
(123 121)
(122 124)
(125 123)
(124 126)
(127 125)
(1 127)
(126 2)
)

// * * * * * * * * * * * * * * * * * * * * * * * * * * * * * * * * * * * * * //


// ************************************************************************* //
