/*--------------------------------*- C++ -*----------------------------------*\
| =========                 |                                                 |
| \\      /  F ield         | OpenFOAM: The Open Source CFD Toolbox           |
|  \\    /   O peration     | Version:  2406                                  |
|   \\  /    A nd           | Website:  www.openfoam.com                      |
|    \\/     M anipulation  |                                                 |
\*---------------------------------------------------------------------------*/
FoamFile
{
    version     2.0;
    format      ascii;
    arch        "LSB;label=32;scalar=64";
    class       featureEdgeMesh;
    location    "constant/triSurface";
    object      wall_outlet.eMesh;
}
// * * * * * * * * * * * * * * * * * * * * * * * * * * * * * * * * * * * * * //


// points:

184
(
(0.014465999789536 0.0009899999713525176 0.8730000257492065)
(0.01449999958276749 0 0.8730000257492065)
(0.01449999958276749 0 0.4379999935626984)
(0.014465999789536 0.0009899999713525176 0.4379999935626984)
(0.0143649997189641 0.001973999897018075 0.4379999935626984)
(0.0143649997189641 0.001973999897018075 0.8730000257492065)
(0.01419700030237436 0.002950000111013651 0.4379999935626984)
(0.01419700030237436 0.002950000111013651 0.8730000257492065)
(0.01396199967712164 0.003911999985575676 0.8730000257492065)
(0.01396199967712164 0.003911999985575676 0.4379999935626984)
(0.01366300042718649 0.004856000188738108 0.8730000257492065)
(0.01366300042718649 0.004856000188738108 0.4379999935626984)
(0.01329999975860119 0.005776999983936548 0.8730000257492065)
(0.01329999975860119 0.005776999983936548 0.4379999935626984)
(0.01287399977445602 0.006670999806374311 0.8730000257492065)
(0.01287399977445602 0.006670999806374311 0.4379999935626984)
(0.01238899957388639 0.007534000091254711 0.4379999935626984)
(0.01238899957388639 0.007534000091254711 0.8730000257492065)
(0.01184600032866001 0.008361999876797199 0.4379999935626984)
(0.01184600032866001 0.008361999876797199 0.8730000257492065)
(0.01124799996614456 0.00915099959820509 0.4379999935626984)
(0.01124799996614456 0.00915099959820509 0.8730000257492065)
(0.01059699989855289 0.009897000156342983 0.4379999935626984)
(0.01059699989855289 0.009897000156342983 0.8730000257492065)
(0.009897000156342983 0.01059699989855289 0.4379999935626984)
(0.009897000156342983 0.01059699989855289 0.8730000257492065)
(0.00915099959820509 0.01124799996614456 0.4379999935626984)
(0.00915099959820509 0.01124799996614456 0.8730000257492065)
(0.008361999876797199 0.01184600032866001 0.4379999935626984)
(0.008361999876797199 0.01184600032866001 0.8730000257492065)
(0.007534000091254711 0.01238899957388639 0.4379999935626984)
(0.007534000091254711 0.01238899957388639 0.8730000257492065)
(0.006670999806374311 0.01287399977445602 0.4379999935626984)
(0.006670999806374311 0.01287399977445602 0.8730000257492065)
(0.005776999983936548 0.01329999975860119 0.4379999935626984)
(0.005776999983936548 0.01329999975860119 0.8730000257492065)
(0.004856000188738108 0.01366300042718649 0.4379999935626984)
(0.004856000188738108 0.01366300042718649 0.8730000257492065)
(0.003911999985575676 0.01396199967712164 0.4379999935626984)
(0.003911999985575676 0.01396199967712164 0.8730000257492065)
(0.002950000111013651 0.01419700030237436 0.4379999935626984)
(0.002950000111013651 0.01419700030237436 0.8730000257492065)
(0.001973999897018075 0.0143649997189641 0.4379999935626984)
(0.001973999897018075 0.0143649997189641 0.8730000257492065)
(0.0009899999713525176 0.014465999789536 0.4379999935626984)
(0.0009899999713525176 0.014465999789536 0.8730000257492065)
(0 0.01449999958276749 0.4379999935626984)
(0 0.01449999958276749 0.8730000257492065)
(-0.0009899999713525176 0.014465999789536 0.4379999935626984)
(-0.0009899999713525176 0.014465999789536 0.8730000257492065)
(-0.001973999897018075 0.0143649997189641 0.4379999935626984)
(-0.001973999897018075 0.0143649997189641 0.8730000257492065)
(-0.002950000111013651 0.01419700030237436 0.4379999935626984)
(-0.002950000111013651 0.01419700030237436 0.8730000257492065)
(-0.003911999985575676 0.01396199967712164 0.4379999935626984)
(-0.003911999985575676 0.01396199967712164 0.8730000257492065)
(-0.004856000188738108 0.01366300042718649 0.4379999935626984)
(-0.004856000188738108 0.01366300042718649 0.8730000257492065)
(-0.005776999983936548 0.01329999975860119 0.4379999935626984)
(-0.005776999983936548 0.01329999975860119 0.8730000257492065)
(-0.006670999806374311 0.01287399977445602 0.4379999935626984)
(-0.006670999806374311 0.01287399977445602 0.8730000257492065)
(-0.007534000091254711 0.01238899957388639 0.8730000257492065)
(-0.007534000091254711 0.01238899957388639 0.4379999935626984)
(-0.008361999876797199 0.01184600032866001 0.4379999935626984)
(-0.008361999876797199 0.01184600032866001 0.8730000257492065)
(-0.00915099959820509 0.01124799996614456 0.8730000257492065)
(-0.00915099959820509 0.01124799996614456 0.4379999935626984)
(-0.009897000156342983 0.01059699989855289 0.8730000257492065)
(-0.009897000156342983 0.01059699989855289 0.4379999935626984)
(-0.01059699989855289 0.009897000156342983 0.8730000257492065)
(-0.01059699989855289 0.009897000156342983 0.4379999935626984)
(-0.01124799996614456 0.00915099959820509 0.4379999935626984)
(-0.01124799996614456 0.00915099959820509 0.8730000257492065)
(-0.01184600032866001 0.008361999876797199 0.4379999935626984)
(-0.01184600032866001 0.008361999876797199 0.8730000257492065)
(-0.01238899957388639 0.007534000091254711 0.4379999935626984)
(-0.01238899957388639 0.007534000091254711 0.8730000257492065)
(-0.01287399977445602 0.006670999806374311 0.4379999935626984)
(-0.01287399977445602 0.006670999806374311 0.8730000257492065)
(-0.01329999975860119 0.005776999983936548 0.4379999935626984)
(-0.01329999975860119 0.005776999983936548 0.8730000257492065)
(-0.01366300042718649 0.004856000188738108 0.4379999935626984)
(-0.01366300042718649 0.004856000188738108 0.8730000257492065)
(-0.01396199967712164 0.003911999985575676 0.4379999935626984)
(-0.01396199967712164 0.003911999985575676 0.8730000257492065)
(-0.01419700030237436 0.002950000111013651 0.4379999935626984)
(-0.01419700030237436 0.002950000111013651 0.8730000257492065)
(-0.0143649997189641 0.001973999897018075 0.4379999935626984)
(-0.0143649997189641 0.001973999897018075 0.8730000257492065)
(-0.014465999789536 0.0009899999713525176 0.4379999935626984)
(-0.014465999789536 0.0009899999713525176 0.8730000257492065)
(-0.01449999958276749 -0 0.4379999935626984)
(-0.01449999958276749 -0 0.8730000257492065)
(-0.014465999789536 -0.0009899999713525176 0.4379999935626984)
(-0.014465999789536 -0.0009899999713525176 0.8730000257492065)
(-0.0143649997189641 -0.001973999897018075 0.4379999935626984)
(-0.0143649997189641 -0.001973999897018075 0.8730000257492065)
(-0.01419700030237436 -0.002950000111013651 0.4379999935626984)
(-0.01419700030237436 -0.002950000111013651 0.8730000257492065)
(-0.01396199967712164 -0.003911999985575676 0.4379999935626984)
(-0.01396199967712164 -0.003911999985575676 0.8730000257492065)
(-0.01366300042718649 -0.004856000188738108 0.4379999935626984)
(-0.01366300042718649 -0.004856000188738108 0.8730000257492065)
(-0.01329999975860119 -0.005776999983936548 0.4379999935626984)
(-0.01329999975860119 -0.005776999983936548 0.8730000257492065)
(-0.01287399977445602 -0.006670999806374311 0.4379999935626984)
(-0.01287399977445602 -0.006670999806374311 0.8730000257492065)
(-0.01238899957388639 -0.007534000091254711 0.8730000257492065)
(-0.01238899957388639 -0.007534000091254711 0.4379999935626984)
(-0.01184600032866001 -0.008361999876797199 0.8730000257492065)
(-0.01184600032866001 -0.008361999876797199 0.4379999935626984)
(-0.01124799996614456 -0.00915099959820509 0.8730000257492065)
(-0.01124799996614456 -0.00915099959820509 0.4379999935626984)
(-0.01059699989855289 -0.009897000156342983 0.8730000257492065)
(-0.01059699989855289 -0.009897000156342983 0.4379999935626984)
(-0.009897000156342983 -0.01059699989855289 0.4379999935626984)
(-0.009897000156342983 -0.01059699989855289 0.8730000257492065)
(-0.00915099959820509 -0.01124799996614456 0.8730000257492065)
(-0.00915099959820509 -0.01124799996614456 0.4379999935626984)
(-0.008361999876797199 -0.01184600032866001 0.8730000257492065)
(-0.008361999876797199 -0.01184600032866001 0.4379999935626984)
(-0.007534000091254711 -0.01238899957388639 0.8730000257492065)
(-0.007534000091254711 -0.01238899957388639 0.4379999935626984)
(-0.006670999806374311 -0.01287399977445602 0.8730000257492065)
(-0.006670999806374311 -0.01287399977445602 0.4379999935626984)
(-0.005776999983936548 -0.01329999975860119 0.4379999935626984)
(-0.005776999983936548 -0.01329999975860119 0.8730000257492065)
(-0.004856000188738108 -0.01366300042718649 0.8730000257492065)
(-0.004856000188738108 -0.01366300042718649 0.4379999935626984)
(-0.003911999985575676 -0.01396199967712164 0.8730000257492065)
(-0.003911999985575676 -0.01396199967712164 0.4379999935626984)
(-0.002950000111013651 -0.01419700030237436 0.4379999935626984)
(-0.002950000111013651 -0.01419700030237436 0.8730000257492065)
(-0.001973999897018075 -0.0143649997189641 0.8730000257492065)
(-0.001973999897018075 -0.0143649997189641 0.4379999935626984)
(-0.0009899999713525176 -0.014465999789536 0.4379999935626984)
(-0.0009899999713525176 -0.014465999789536 0.8730000257492065)
(0 -0.01449999958276749 0.8730000257492065)
(0 -0.01449999958276749 0.4379999935626984)
(0.0009899999713525176 -0.014465999789536 0.4379999935626984)
(0.0009899999713525176 -0.014465999789536 0.8730000257492065)
(0.001973999897018075 -0.0143649997189641 0.4379999935626984)
(0.001973999897018075 -0.0143649997189641 0.8730000257492065)
(0.002950000111013651 -0.01419700030237436 0.4379999935626984)
(0.002950000111013651 -0.01419700030237436 0.8730000257492065)
(0.003911999985575676 -0.01396199967712164 0.4379999935626984)
(0.003911999985575676 -0.01396199967712164 0.8730000257492065)
(0.004856000188738108 -0.01366300042718649 0.4379999935626984)
(0.004856000188738108 -0.01366300042718649 0.8730000257492065)
(0.005776999983936548 -0.01329999975860119 0.4379999935626984)
(0.005776999983936548 -0.01329999975860119 0.8730000257492065)
(0.006670999806374311 -0.01287399977445602 0.4379999935626984)
(0.006670999806374311 -0.01287399977445602 0.8730000257492065)
(0.007534000091254711 -0.01238899957388639 0.4379999935626984)
(0.007534000091254711 -0.01238899957388639 0.8730000257492065)
(0.008361999876797199 -0.01184600032866001 0.4379999935626984)
(0.008361999876797199 -0.01184600032866001 0.8730000257492065)
(0.00915099959820509 -0.01124799996614456 0.8730000257492065)
(0.00915099959820509 -0.01124799996614456 0.4379999935626984)
(0.009897000156342983 -0.01059699989855289 0.8730000257492065)
(0.009897000156342983 -0.01059699989855289 0.4379999935626984)
(0.01059699989855289 -0.009897000156342983 0.8730000257492065)
(0.01059699989855289 -0.009897000156342983 0.4379999935626984)
(0.01124799996614456 -0.00915099959820509 0.8730000257492065)
(0.01124799996614456 -0.00915099959820509 0.4379999935626984)
(0.01184600032866001 -0.008361999876797199 0.8730000257492065)
(0.01184600032866001 -0.008361999876797199 0.4379999935626984)
(0.01238899957388639 -0.007534000091254711 0.8730000257492065)
(0.01238899957388639 -0.007534000091254711 0.4379999935626984)
(0.01287399977445602 -0.006670999806374311 0.8730000257492065)
(0.01287399977445602 -0.006670999806374311 0.4379999935626984)
(0.01329999975860119 -0.005776999983936548 0.8730000257492065)
(0.01329999975860119 -0.005776999983936548 0.4379999935626984)
(0.01366300042718649 -0.004856000188738108 0.8730000257492065)
(0.01366300042718649 -0.004856000188738108 0.4379999935626984)
(0.01396199967712164 -0.003911999985575676 0.8730000257492065)
(0.01396199967712164 -0.003911999985575676 0.4379999935626984)
(0.01419700030237436 -0.002950000111013651 0.8730000257492065)
(0.01419700030237436 -0.002950000111013651 0.4379999935626984)
(0.0143649997189641 -0.001973999897018075 0.8730000257492065)
(0.0143649997189641 -0.001973999897018075 0.4379999935626984)
(0.014465999789536 -0.0009899999713525176 0.8730000257492065)
(0.014465999789536 -0.0009899999713525176 0.4379999935626984)
)


// edges:

184
(
(0 1)
(2 3)
(3 4)
(5 0)
(4 6)
(7 5)
(8 7)
(6 9)
(10 8)
(9 11)
(12 10)
(11 13)
(14 12)
(13 15)
(15 16)
(17 14)
(16 18)
(19 17)
(18 20)
(21 19)
(20 22)
(23 21)
(22 24)
(25 23)
(24 26)
(27 25)
(26 28)
(29 27)
(28 30)
(31 29)
(30 32)
(33 31)
(32 34)
(35 33)
(34 36)
(37 35)
(36 38)
(39 37)
(38 40)
(41 39)
(40 42)
(43 41)
(42 44)
(45 43)
(44 46)
(47 45)
(46 48)
(49 47)
(48 50)
(51 49)
(50 52)
(53 51)
(52 54)
(55 53)
(54 56)
(57 55)
(56 58)
(59 57)
(58 60)
(61 59)
(62 61)
(60 63)
(63 64)
(65 62)
(66 65)
(64 67)
(68 66)
(67 69)
(70 68)
(69 71)
(71 72)
(73 70)
(72 74)
(75 73)
(74 76)
(77 75)
(76 78)
(79 77)
(78 80)
(81 79)
(80 82)
(83 81)
(82 84)
(85 83)
(84 86)
(87 85)
(86 88)
(89 87)
(88 90)
(91 89)
(90 92)
(93 91)
(92 94)
(95 93)
(94 96)
(97 95)
(96 98)
(99 97)
(98 100)
(101 99)
(100 102)
(103 101)
(102 104)
(105 103)
(104 106)
(107 105)
(108 107)
(106 109)
(110 108)
(109 111)
(112 110)
(111 113)
(114 112)
(113 115)
(115 116)
(117 114)
(118 117)
(116 119)
(120 118)
(119 121)
(122 120)
(121 123)
(124 122)
(123 125)
(125 126)
(127 124)
(128 127)
(126 129)
(130 128)
(129 131)
(131 132)
(133 130)
(134 133)
(132 135)
(135 136)
(137 134)
(138 137)
(136 139)
(139 140)
(141 138)
(140 142)
(143 141)
(142 144)
(145 143)
(144 146)
(147 145)
(146 148)
(149 147)
(148 150)
(151 149)
(150 152)
(153 151)
(152 154)
(155 153)
(154 156)
(157 155)
(158 157)
(156 159)
(160 158)
(159 161)
(162 160)
(161 163)
(164 162)
(163 165)
(166 164)
(165 167)
(168 166)
(167 169)
(170 168)
(169 171)
(172 170)
(171 173)
(174 172)
(173 175)
(176 174)
(175 177)
(178 176)
(177 179)
(180 178)
(179 181)
(182 180)
(181 183)
(1 182)
(183 2)
)

// * * * * * * * * * * * * * * * * * * * * * * * * * * * * * * * * * * * * * //


// ************************************************************************* //
