/*--------------------------------*- C++ -*----------------------------------*\
| =========                 |                                                 |
| \\      /  F ield         | OpenFOAM: The Open Source CFD Toolbox           |
|  \\    /   O peration     | Version:  2406                                  |
|   \\  /    A nd           | Website:  www.openfoam.com                      |
|    \\/     M anipulation  |                                                 |
\*---------------------------------------------------------------------------*/
FoamFile
{
    version     2.0;
    format      ascii;
    arch        "LSB;label=32;scalar=64";
    class       featureEdgeMesh;
    location    "constant/triSurface";
    object      wall_inlet.eMesh;
}
// * * * * * * * * * * * * * * * * * * * * * * * * * * * * * * * * * * * * * //


// points:

184
(
(0.014465999789536 0.0009899999713525176 0.4350000023841858)
(0.01449999958276749 0 0.4350000023841858)
(0.01449999958276749 0 0)
(0.014465999789536 0.0009899999713525176 0)
(0.0143649997189641 0.001973999897018075 0.4350000023841858)
(0.0143649997189641 0.001973999897018075 0)
(0.01419700030237436 0.002950000111013651 0.4350000023841858)
(0.01419700030237436 0.002950000111013651 0)
(0.01396199967712164 0.003911999985575676 0.4350000023841858)
(0.01396199967712164 0.003911999985575676 0)
(0.01366300042718649 0.004856000188738108 0.4350000023841858)
(0.01366300042718649 0.004856000188738108 0)
(0.01329999975860119 0.005776999983936548 0.4350000023841858)
(0.01329999975860119 0.005776999983936548 0)
(0.01287399977445602 0.006670999806374311 0.4350000023841858)
(0.01287399977445602 0.006670999806374311 0)
(0.01238899957388639 0.007534000091254711 0.4350000023841858)
(0.01238899957388639 0.007534000091254711 0)
(0.01184600032866001 0.008361999876797199 0.4350000023841858)
(0.01184600032866001 0.008361999876797199 0)
(0.01124799996614456 0.00915099959820509 0.4350000023841858)
(0.01124799996614456 0.00915099959820509 0)
(0.01059699989855289 0.009897000156342983 0.4350000023841858)
(0.01059699989855289 0.009897000156342983 0)
(0.009897000156342983 0.01059699989855289 0.4350000023841858)
(0.009897000156342983 0.01059699989855289 0)
(0.00915099959820509 0.01124799996614456 0.4350000023841858)
(0.00915099959820509 0.01124799996614456 0)
(0.008361999876797199 0.01184600032866001 0.4350000023841858)
(0.008361999876797199 0.01184600032866001 0)
(0.007534000091254711 0.01238899957388639 0.4350000023841858)
(0.007534000091254711 0.01238899957388639 0)
(0.006670999806374311 0.01287399977445602 0.4350000023841858)
(0.006670999806374311 0.01287399977445602 0)
(0.005776999983936548 0.01329999975860119 0.4350000023841858)
(0.005776999983936548 0.01329999975860119 0)
(0.004856000188738108 0.01366300042718649 0)
(0.004856000188738108 0.01366300042718649 0.4350000023841858)
(0.003911999985575676 0.01396199967712164 0.4350000023841858)
(0.003911999985575676 0.01396199967712164 0)
(0.002950000111013651 0.01419700030237436 0.4350000023841858)
(0.002950000111013651 0.01419700030237436 0)
(0.001973999897018075 0.0143649997189641 0.4350000023841858)
(0.001973999897018075 0.0143649997189641 0)
(0.0009899999713525176 0.014465999789536 0.4350000023841858)
(0.0009899999713525176 0.014465999789536 0)
(0 0.01449999958276749 0)
(0 0.01449999958276749 0.4350000023841858)
(-0.0009899999713525176 0.014465999789536 0)
(-0.0009899999713525176 0.014465999789536 0.4350000023841858)
(-0.001973999897018075 0.0143649997189641 0.4350000023841858)
(-0.001973999897018075 0.0143649997189641 0)
(-0.002950000111013651 0.01419700030237436 0)
(-0.002950000111013651 0.01419700030237436 0.4350000023841858)
(-0.003911999985575676 0.01396199967712164 0)
(-0.003911999985575676 0.01396199967712164 0.4350000023841858)
(-0.004856000188738108 0.01366300042718649 0.4350000023841858)
(-0.004856000188738108 0.01366300042718649 0)
(-0.005776999983936548 0.01329999975860119 0)
(-0.005776999983936548 0.01329999975860119 0.4350000023841858)
(-0.006670999806374311 0.01287399977445602 0.4350000023841858)
(-0.006670999806374311 0.01287399977445602 0)
(-0.007534000091254711 0.01238899957388639 0.4350000023841858)
(-0.007534000091254711 0.01238899957388639 0)
(-0.008361999876797199 0.01184600032866001 0)
(-0.008361999876797199 0.01184600032866001 0.4350000023841858)
(-0.00915099959820509 0.01124799996614456 0.4350000023841858)
(-0.00915099959820509 0.01124799996614456 0)
(-0.009897000156342983 0.01059699989855289 0)
(-0.009897000156342983 0.01059699989855289 0.4350000023841858)
(-0.01059699989855289 0.009897000156342983 0.4350000023841858)
(-0.01059699989855289 0.009897000156342983 0)
(-0.01124799996614456 0.00915099959820509 0.4350000023841858)
(-0.01124799996614456 0.00915099959820509 0)
(-0.01184600032866001 0.008361999876797199 0.4350000023841858)
(-0.01184600032866001 0.008361999876797199 0)
(-0.01238899957388639 0.007534000091254711 0.4350000023841858)
(-0.01238899957388639 0.007534000091254711 0)
(-0.01287399977445602 0.006670999806374311 0.4350000023841858)
(-0.01287399977445602 0.006670999806374311 0)
(-0.01329999975860119 0.005776999983936548 0.4350000023841858)
(-0.01329999975860119 0.005776999983936548 0)
(-0.01366300042718649 0.004856000188738108 0.4350000023841858)
(-0.01366300042718649 0.004856000188738108 0)
(-0.01396199967712164 0.003911999985575676 0.4350000023841858)
(-0.01396199967712164 0.003911999985575676 0)
(-0.01419700030237436 0.002950000111013651 0.4350000023841858)
(-0.01419700030237436 0.002950000111013651 0)
(-0.0143649997189641 0.001973999897018075 0.4350000023841858)
(-0.0143649997189641 0.001973999897018075 0)
(-0.014465999789536 0.0009899999713525176 0.4350000023841858)
(-0.014465999789536 0.0009899999713525176 0)
(-0.01449999958276749 -0 0.4350000023841858)
(-0.01449999958276749 -0 0)
(-0.014465999789536 -0.0009899999713525176 0.4350000023841858)
(-0.014465999789536 -0.0009899999713525176 0)
(-0.0143649997189641 -0.001973999897018075 0.4350000023841858)
(-0.0143649997189641 -0.001973999897018075 0)
(-0.01419700030237436 -0.002950000111013651 0.4350000023841858)
(-0.01419700030237436 -0.002950000111013651 0)
(-0.01396199967712164 -0.003911999985575676 0.4350000023841858)
(-0.01396199967712164 -0.003911999985575676 0)
(-0.01366300042718649 -0.004856000188738108 0.4350000023841858)
(-0.01366300042718649 -0.004856000188738108 0)
(-0.01329999975860119 -0.005776999983936548 0.4350000023841858)
(-0.01329999975860119 -0.005776999983936548 0)
(-0.01287399977445602 -0.006670999806374311 0.4350000023841858)
(-0.01287399977445602 -0.006670999806374311 0)
(-0.01238899957388639 -0.007534000091254711 0.4350000023841858)
(-0.01238899957388639 -0.007534000091254711 0)
(-0.01184600032866001 -0.008361999876797199 0.4350000023841858)
(-0.01184600032866001 -0.008361999876797199 0)
(-0.01124799996614456 -0.00915099959820509 0.4350000023841858)
(-0.01124799996614456 -0.00915099959820509 0)
(-0.01059699989855289 -0.009897000156342983 0.4350000023841858)
(-0.01059699989855289 -0.009897000156342983 0)
(-0.009897000156342983 -0.01059699989855289 0.4350000023841858)
(-0.009897000156342983 -0.01059699989855289 0)
(-0.00915099959820509 -0.01124799996614456 0.4350000023841858)
(-0.00915099959820509 -0.01124799996614456 0)
(-0.008361999876797199 -0.01184600032866001 0.4350000023841858)
(-0.008361999876797199 -0.01184600032866001 0)
(-0.007534000091254711 -0.01238899957388639 0)
(-0.007534000091254711 -0.01238899957388639 0.4350000023841858)
(-0.006670999806374311 -0.01287399977445602 0.4350000023841858)
(-0.006670999806374311 -0.01287399977445602 0)
(-0.005776999983936548 -0.01329999975860119 0.4350000023841858)
(-0.005776999983936548 -0.01329999975860119 0)
(-0.004856000188738108 -0.01366300042718649 0.4350000023841858)
(-0.004856000188738108 -0.01366300042718649 0)
(-0.003911999985575676 -0.01396199967712164 0.4350000023841858)
(-0.003911999985575676 -0.01396199967712164 0)
(-0.002950000111013651 -0.01419700030237436 0.4350000023841858)
(-0.002950000111013651 -0.01419700030237436 0)
(-0.001973999897018075 -0.0143649997189641 0.4350000023841858)
(-0.001973999897018075 -0.0143649997189641 0)
(-0.0009899999713525176 -0.014465999789536 0.4350000023841858)
(-0.0009899999713525176 -0.014465999789536 0)
(0 -0.01449999958276749 0.4350000023841858)
(0 -0.01449999958276749 0)
(0.0009899999713525176 -0.014465999789536 0.4350000023841858)
(0.0009899999713525176 -0.014465999789536 0)
(0.001973999897018075 -0.0143649997189641 0)
(0.001973999897018075 -0.0143649997189641 0.4350000023841858)
(0.002950000111013651 -0.01419700030237436 0.4350000023841858)
(0.002950000111013651 -0.01419700030237436 0)
(0.003911999985575676 -0.01396199967712164 0.4350000023841858)
(0.003911999985575676 -0.01396199967712164 0)
(0.004856000188738108 -0.01366300042718649 0.4350000023841858)
(0.004856000188738108 -0.01366300042718649 0)
(0.005776999983936548 -0.01329999975860119 0.4350000023841858)
(0.005776999983936548 -0.01329999975860119 0)
(0.006670999806374311 -0.01287399977445602 0.4350000023841858)
(0.006670999806374311 -0.01287399977445602 0)
(0.007534000091254711 -0.01238899957388639 0.4350000023841858)
(0.007534000091254711 -0.01238899957388639 0)
(0.008361999876797199 -0.01184600032866001 0.4350000023841858)
(0.008361999876797199 -0.01184600032866001 0)
(0.00915099959820509 -0.01124799996614456 0.4350000023841858)
(0.00915099959820509 -0.01124799996614456 0)
(0.009897000156342983 -0.01059699989855289 0.4350000023841858)
(0.009897000156342983 -0.01059699989855289 0)
(0.01059699989855289 -0.009897000156342983 0.4350000023841858)
(0.01059699989855289 -0.009897000156342983 0)
(0.01124799996614456 -0.00915099959820509 0.4350000023841858)
(0.01124799996614456 -0.00915099959820509 0)
(0.01184600032866001 -0.008361999876797199 0.4350000023841858)
(0.01184600032866001 -0.008361999876797199 0)
(0.01238899957388639 -0.007534000091254711 0.4350000023841858)
(0.01238899957388639 -0.007534000091254711 0)
(0.01287399977445602 -0.006670999806374311 0.4350000023841858)
(0.01287399977445602 -0.006670999806374311 0)
(0.01329999975860119 -0.005776999983936548 0.4350000023841858)
(0.01329999975860119 -0.005776999983936548 0)
(0.01366300042718649 -0.004856000188738108 0.4350000023841858)
(0.01366300042718649 -0.004856000188738108 0)
(0.01396199967712164 -0.003911999985575676 0.4350000023841858)
(0.01396199967712164 -0.003911999985575676 0)
(0.01419700030237436 -0.002950000111013651 0.4350000023841858)
(0.01419700030237436 -0.002950000111013651 0)
(0.0143649997189641 -0.001973999897018075 0.4350000023841858)
(0.0143649997189641 -0.001973999897018075 0)
(0.014465999789536 -0.0009899999713525176 0.4350000023841858)
(0.014465999789536 -0.0009899999713525176 0)
)


// edges:

184
(
(0 1)
(2 3)
(4 0)
(3 5)
(6 4)
(5 7)
(8 6)
(7 9)
(10 8)
(9 11)
(12 10)
(11 13)
(14 12)
(13 15)
(16 14)
(15 17)
(18 16)
(17 19)
(20 18)
(19 21)
(22 20)
(21 23)
(24 22)
(23 25)
(26 24)
(25 27)
(28 26)
(27 29)
(30 28)
(29 31)
(32 30)
(31 33)
(34 32)
(33 35)
(35 36)
(37 34)
(38 37)
(36 39)
(40 38)
(39 41)
(42 40)
(41 43)
(44 42)
(43 45)
(45 46)
(47 44)
(46 48)
(49 47)
(50 49)
(48 51)
(51 52)
(53 50)
(52 54)
(55 53)
(56 55)
(54 57)
(57 58)
(59 56)
(60 59)
(58 61)
(62 60)
(61 63)
(63 64)
(65 62)
(66 65)
(64 67)
(67 68)
(69 66)
(70 69)
(68 71)
(72 70)
(71 73)
(74 72)
(73 75)
(76 74)
(75 77)
(78 76)
(77 79)
(80 78)
(79 81)
(82 80)
(81 83)
(84 82)
(83 85)
(86 84)
(85 87)
(88 86)
(87 89)
(90 88)
(89 91)
(92 90)
(91 93)
(94 92)
(93 95)
(96 94)
(95 97)
(98 96)
(97 99)
(100 98)
(99 101)
(102 100)
(101 103)
(104 102)
(103 105)
(106 104)
(105 107)
(108 106)
(107 109)
(110 108)
(109 111)
(112 110)
(111 113)
(114 112)
(113 115)
(116 114)
(115 117)
(118 116)
(117 119)
(120 118)
(119 121)
(121 122)
(123 120)
(124 123)
(122 125)
(126 124)
(125 127)
(128 126)
(127 129)
(130 128)
(129 131)
(132 130)
(131 133)
(134 132)
(133 135)
(136 134)
(135 137)
(138 136)
(137 139)
(140 138)
(139 141)
(141 142)
(143 140)
(144 143)
(142 145)
(146 144)
(145 147)
(148 146)
(147 149)
(150 148)
(149 151)
(152 150)
(151 153)
(154 152)
(153 155)
(156 154)
(155 157)
(158 156)
(157 159)
(160 158)
(159 161)
(162 160)
(161 163)
(164 162)
(163 165)
(166 164)
(165 167)
(168 166)
(167 169)
(170 168)
(169 171)
(172 170)
(171 173)
(174 172)
(173 175)
(176 174)
(175 177)
(178 176)
(177 179)
(180 178)
(179 181)
(182 180)
(181 183)
(1 182)
(183 2)
)

// * * * * * * * * * * * * * * * * * * * * * * * * * * * * * * * * * * * * * //


// ************************************************************************* //
