/*--------------------------------*- C++ -*----------------------------------*\
| =========                 |                                                 |
| \\      /  F ield         | OpenFOAM: The Open Source CFD Toolbox           |
|  \\    /   O peration     | Version:  2406                                  |
|   \\  /    A nd           | Website:  www.openfoam.com                      |
|    \\/     M anipulation  |                                                 |
\*---------------------------------------------------------------------------*/
FoamFile
{
    version     2.0;
    format      ascii;
    arch        "LSB;label=32;scalar=64";
    class       extendedFeatureEdgeMesh;
    location    "constant/extendedFeatureEdgeMesh";
    object      inlet.extendedFeatureEdgeMesh;
}
// * * * * * * * * * * * * * * * * * * * * * * * * * * * * * * * * * * * * * //

// points

92
(
(0.01124799996614456 -0.00915099959820509 0)
(0.01059699989855289 -0.009897000156342983 0)
(0.009897000156342983 -0.01059699989855289 0)
(0.00915099959820509 -0.01124799996614456 0)
(0.01238899957388639 -0.007534000091254711 0)
(0.01184600032866001 -0.008361999876797199 0)
(0.008361999876797199 -0.01184600032866001 0)
(0.007534000091254711 -0.01238899957388639 0)
(0.006670999806374311 -0.01287399977445602 0)
(0.005776999983936548 -0.01329999975860119 0)
(0.01329999975860119 -0.005776999983936548 0)
(0.01287399977445602 -0.006670999806374311 0)
(0.01396199967712164 -0.003911999985575676 0)
(0.01366300042718649 -0.004856000188738108 0)
(0.004856000188738108 -0.01366300042718649 0)
(0.003911999985575676 -0.01396199967712164 0)
(0.014465999789536 -0.0009899999713525176 0)
(0.0143649997189641 -0.001973999897018075 0)
(0.01419700030237436 -0.002950000111013651 0)
(0.002950000111013651 -0.01419700030237436 0)
(0.001973999897018075 -0.0143649997189641 0)
(0.0009899999713525176 -0.014465999789536 0)
(0 -0.01449999958276749 0)
(0.01449999958276749 0 0)
(0.014465999789536 0.0009899999713525176 0)
(0.01419700030237436 0.002950000111013651 0)
(0.0143649997189641 0.001973999897018075 0)
(-0.0009899999713525176 -0.014465999789536 0)
(-0.001973999897018075 -0.0143649997189641 0)
(-0.002950000111013651 -0.01419700030237436 0)
(0.01396199967712164 0.003911999985575676 0)
(-0.003911999985575676 -0.01396199967712164 0)
(0.01329999975860119 0.005776999983936548 0)
(0.01366300042718649 0.004856000188738108 0)
(-0.004856000188738108 -0.01366300042718649 0)
(-0.005776999983936548 -0.01329999975860119 0)
(-0.006670999806374311 -0.01287399977445602 0)
(-0.007534000091254711 -0.01238899957388639 0)
(0.01238899957388639 0.007534000091254711 0)
(0.01287399977445602 0.006670999806374311 0)
(0.01124799996614456 0.00915099959820509 0)
(0.01184600032866001 0.008361999876797199 0)
(-0.008361999876797199 -0.01184600032866001 0)
(-0.00915099959820509 -0.01124799996614456 0)
(-0.009897000156342983 -0.01059699989855289 0)
(-0.01059699989855289 -0.009897000156342983 0)
(-0.01124799996614456 -0.00915099959820509 0)
(0.00915099959820509 0.01124799996614456 0)
(0.009897000156342983 0.01059699989855289 0)
(0.01059699989855289 0.009897000156342983 0)
(-0.01184600032866001 -0.008361999876797199 0)
(-0.01238899957388639 -0.007534000091254711 0)
(0.007534000091254711 0.01238899957388639 0)
(0.008361999876797199 0.01184600032866001 0)
(0.005776999983936548 0.01329999975860119 0)
(0.006670999806374311 0.01287399977445602 0)
(-0.01287399977445602 -0.006670999806374311 0)
(-0.01329999975860119 -0.005776999983936548 0)
(-0.01366300042718649 -0.004856000188738108 0)
(-0.01396199967712164 -0.003911999985575676 0)
(0.003911999985575676 0.01396199967712164 0)
(0.004856000188738108 0.01366300042718649 0)
(0.0009899999713525176 0.014465999789536 0)
(0.001973999897018075 0.0143649997189641 0)
(0.002950000111013651 0.01419700030237436 0)
(-0.01419700030237436 -0.002950000111013651 0)
(-0.0143649997189641 -0.001973999897018075 0)
(-0.014465999789536 -0.0009899999713525176 0)
(-0.01449999958276749 -0 0)
(0 0.01449999958276749 0)
(-0.002950000111013651 0.01419700030237436 0)
(-0.001973999897018075 0.0143649997189641 0)
(-0.0009899999713525176 0.014465999789536 0)
(-0.014465999789536 0.0009899999713525176 0)
(-0.0143649997189641 0.001973999897018075 0)
(-0.01419700030237436 0.002950000111013651 0)
(-0.003911999985575676 0.01396199967712164 0)
(-0.01396199967712164 0.003911999985575676 0)
(-0.005776999983936548 0.01329999975860119 0)
(-0.004856000188738108 0.01366300042718649 0)
(-0.01366300042718649 0.004856000188738108 0)
(-0.01329999975860119 0.005776999983936548 0)
(-0.01287399977445602 0.006670999806374311 0)
(-0.01238899957388639 0.007534000091254711 0)
(-0.007534000091254711 0.01238899957388639 0)
(-0.006670999806374311 0.01287399977445602 0)
(-0.01184600032866001 0.008361999876797199 0)
(-0.01124799996614456 0.00915099959820509 0)
(-0.00915099959820509 0.01124799996614456 0)
(-0.008361999876797199 0.01184600032866001 0)
(-0.01059699989855289 0.009897000156342983 0)
(-0.009897000156342983 0.01059699989855289 0)
)

// edges

92
(
(0 1)
(1 2)
(2 3)
(4 5)
(5 0)
(3 6)
(6 7)
(7 8)
(8 9)
(10 11)
(11 4)
(12 13)
(13 10)
(9 14)
(14 15)
(16 17)
(17 18)
(19 20)
(20 21)
(15 19)
(21 22)
(18 12)
(23 16)
(24 23)
(25 26)
(26 24)
(22 27)
(27 28)
(28 29)
(30 25)
(29 31)
(32 33)
(33 30)
(31 34)
(34 35)
(35 36)
(36 37)
(38 39)
(39 32)
(40 41)
(41 38)
(37 42)
(42 43)
(43 44)
(44 45)
(45 46)
(47 48)
(48 49)
(49 40)
(46 50)
(50 51)
(52 53)
(53 47)
(54 55)
(55 52)
(51 56)
(56 57)
(57 58)
(58 59)
(60 61)
(61 54)
(62 63)
(63 64)
(65 66)
(66 67)
(67 68)
(59 65)
(69 62)
(64 60)
(70 71)
(71 72)
(72 69)
(68 73)
(73 74)
(74 75)
(76 70)
(75 77)
(78 79)
(79 76)
(77 80)
(80 81)
(81 82)
(82 83)
(84 85)
(85 78)
(83 86)
(86 87)
(88 89)
(89 84)
(87 90)
(90 91)
(91 88)
)

// concaveStart mixedStart nonFeatureStart
0 0 0
// internalStart flatStart openStart multipleStart
0 0 0 92
// normals
56{(0 0 -1)}
// normal volume types

56
(
0
0
0
0
0
0
0
0
0
0
0
0
0
0
0
0
0
0
0
0
0
0
0
0
0
0
0
0
0
0
0
0
0
0
0
0
0
0
0
0
0
0
0
0
0
0
0
0
0
0
0
0
0
0
0
0
)

// normalDirections

92
(
1(1)
1(1)
1(1)
1(1)
1(1)
1(1)
1(1)
1(1)
1(1)
1(1)
1(1)
1(1)
1(1)
1(1)
1(1)
1(1)
1(1)
1(1)
1(1)
1(1)
1(1)
1(1)
1(1)
1(1)
1(1)
1(1)
1(1)
1(1)
1(1)
1(1)
1(1)
1(1)
1(1)
1(1)
1(1)
1(1)
1(1)
1(1)
1(1)
1(1)
1(1)
1(1)
1(1)
1(1)
1(1)
1(1)
1(1)
1(1)
1(1)
1(1)
1(1)
1(1)
1(1)
1(1)
1(1)
1(1)
1(1)
1(1)
1(1)
1(1)
1(1)
1(1)
1(1)
1(1)
1(1)
1(1)
1(1)
1(1)
1(1)
1(1)
1(1)
1(1)
1(1)
1(1)
1(1)
1(1)
1(1)
1(1)
1(1)
1(1)
1(1)
1(1)
1(1)
1(1)
1(1)
1(1)
1(1)
1(1)
1(1)
1(1)
1(1)
1(1)
)

// edgeNormals

92
(
1(0)
1(1)
1(1)
1(2)
1(2)
1(3)
1(3)
1(4)
1(4)
1(5)
1(5)
1(6)
1(6)
1(7)
1(7)
1(8)
1(8)
1(9)
1(9)
1(10)
1(11)
1(12)
1(13)
1(14)
1(15)
1(15)
1(16)
1(17)
1(17)
1(18)
1(19)
1(20)
1(20)
1(21)
1(21)
1(22)
1(22)
1(23)
1(23)
1(24)
1(24)
1(25)
1(25)
1(26)
1(27)
1(27)
1(28)
1(28)
1(29)
1(30)
1(30)
1(31)
1(31)
1(32)
1(32)
1(33)
1(33)
1(34)
1(34)
1(35)
1(35)
1(36)
1(36)
1(37)
1(37)
1(38)
1(39)
1(40)
1(41)
1(42)
1(42)
1(43)
1(44)
1(45)
1(45)
1(46)
1(47)
1(48)
1(48)
1(49)
1(49)
1(50)
1(50)
1(51)
1(51)
1(52)
1(52)
1(53)
1(53)
1(54)
1(54)
1(55)
)

// featurePointNormals
0()
// featurePointEdges
0()
// regionEdges

92
(
0
1
2
3
4
5
6
7
8
9
10
11
12
13
14
15
16
17
18
19
20
21
22
23
24
25
26
27
28
29
30
31
32
33
34
35
36
37
38
39
40
41
42
43
44
45
46
47
48
49
50
51
52
53
54
55
56
57
58
59
60
61
62
63
64
65
66
67
68
69
70
71
72
73
74
75
76
77
78
79
80
81
82
83
84
85
86
87
88
89
90
91
)



// ************************************************************************* //
