/*--------------------------------*- C++ -*----------------------------------*\
| =========                 |                                                 |
| \\      /  F ield         | OpenFOAM: The Open Source CFD Toolbox           |
|  \\    /   O peration     | Version:  2406                                  |
|   \\  /    A nd           | Website:  www.openfoam.com                      |
|    \\/     M anipulation  |                                                 |
\*---------------------------------------------------------------------------*/
FoamFile
{
    version     2.0;
    format      ascii;
    arch        "LSB;label=32;scalar=64";
    class       extendedFeatureEdgeMesh;
    location    "constant/extendedFeatureEdgeMesh";
    object      plate_outlet.extendedFeatureEdgeMesh;
}
// * * * * * * * * * * * * * * * * * * * * * * * * * * * * * * * * * * * * * //

// points

156
(
(0.005776999983936548 -0.01329999975860119 0.4379999935626984)
(0.004856000188738108 -0.01366300042718649 0.4379999935626984)
(0.003911999985575676 -0.01396199967712164 0.4379999935626984)
(0.007534000091254711 -0.01238899957388639 0.4379999935626984)
(0.006670999806374311 -0.01287399977445602 0.4379999935626984)
(0.002614999888464808 -0.01078900042921305 0.4379999935626984)
(0.003157000057399273 -0.009978000074625015 0.4379999935626984)
(0.002950000111013651 -0.01419700030237436 0.4379999935626984)
(0.001973999897018075 -0.0143649997189641 0.4379999935626984)
(0.001803999999538064 -0.01133100036531687 0.4379999935626984)
(0.00915099959820509 -0.01124799996614456 0.4379999935626984)
(0.008361999876797199 -0.01184600032866001 0.4379999935626984)
(0.003347000107169151 -0.009021000005304813 0.4379999935626984)
(0.0009899999713525176 -0.014465999789536 0.4379999935626984)
(0 -0.01449999958276749 0.4379999935626984)
(0.000846999988425523 -0.01152100041508675 0.4379999935626984)
(0.01419700030237436 -0.002950000111013651 0.4379999935626984)
(0.01396199967712164 -0.003911999985575676 0.4379999935626984)
(0.01366300042718649 -0.004856000188738108 0.4379999935626984)
(0.01329999975860119 -0.005776999983936548 0.4379999935626984)
(0.01287399977445602 -0.006670999806374311 0.4379999935626984)
(0.01238899957388639 -0.007534000091254711 0.4379999935626984)
(0.009352000430226326 -0.002320999978110194 0.4379999935626984)
(0.01016299985349178 -0.001779000042006373 0.4379999935626984)
(0.014465999789536 -0.0009899999713525176 0.4379999935626984)
(0.0143649997189641 -0.001973999897018075 0.4379999935626984)
(0.0107049997895956 -0.0009679999784566462 0.4379999935626984)
(-0.0001100000008591451 -0.01133100036531687 0.4379999935626984)
(-0.0009899999713525176 -0.014465999789536 0.4379999935626984)
(-0.001973999897018075 -0.0143649997189641 0.4379999935626984)
(0.014465999789536 0.0009899999713525176 0.4379999935626984)
(0.01449999958276749 0 0.4379999935626984)
(0.01089600007981062 -1.100000008591451e-05 0.4379999935626984)
(0.01184600032866001 -0.008361999876797199 0.4379999935626984)
(0.008395999670028687 -0.002511000027880073 0.4379999935626984)
(0.003157000057399273 -0.008065000176429749 0.4379999935626984)
(0.01124799996614456 -0.00915099959820509 0.4379999935626984)
(0.01059699989855289 -0.009897000156342983 0.4379999935626984)
(0.009897000156342983 -0.01059699989855289 0.4379999935626984)
(-0.0009210000280290842 -0.01078900042921305 0.4379999935626984)
(-0.002950000111013651 -0.01419700030237436 0.4379999935626984)
(-0.003911999985575676 -0.01396199967712164 0.4379999935626984)
(0.0107049997895956 0.0009449999779462814 0.4379999935626984)
(0.01419700030237436 0.002950000111013651 0.4379999935626984)
(0.0143649997189641 0.001973999897018075 0.4379999935626984)
(0.004184999968856573 -0.005524999927729368 0.4379999935626984)
(0.004995999857783318 -0.004982999991625547 0.4379999935626984)
(0.002614999888464808 -0.007253999821841717 0.4379999935626984)
(0.005537999793887138 -0.004172000102698803 0.4379999935626984)
(0.007439000066369772 -0.002320999978110194 0.4379999935626984)
(0.005727999843657017 -0.003215000033378601 0.4379999935626984)
(0.003227999899536371 -0.005714999977499247 0.4379999935626984)
(-0.001462999964132905 -0.009978000074625015 0.4379999935626984)
(-0.004856000188738108 -0.01366300042718649 0.4379999935626984)
(0.001803999999538064 -0.006711999885737896 0.4379999935626984)
(0.006628000177443027 -0.001779000042006373 0.4379999935626984)
(0.01366300042718649 0.004856000188738108 0.4379999935626984)
(0.01396199967712164 0.003911999985575676 0.4379999935626984)
(0.01016299985349178 0.001756999990902841 0.4379999935626984)
(0.005537999793887138 -0.002258999971672893 0.4379999935626984)
(0.002272000070661306 -0.005524999927729368 0.4379999935626984)
(-0.005776999983936548 -0.01329999975860119 0.4379999935626984)
(-0.001653000013902783 -0.009021000005304813 0.4379999935626984)
(0.000846999988425523 -0.006521000061184168 0.4379999935626984)
(0.006085999775677919 -0.0009679999784566462 0.4379999935626984)
(0.01329999975860119 0.005776999983936548 0.4379999935626984)
(0.009352000430226326 0.00229800003580749 0.4379999935626984)
(-0.0001100000008591451 -0.006711999885737896 0.4379999935626984)
(0.001460999948903918 -0.004982999991625547 0.4379999935626984)
(0.004995999857783318 -0.001446999958716333 0.4379999935626984)
(-0.006670999806374311 -0.01287399977445602 0.4379999935626984)
(0.01287399977445602 0.006670999806374311 0.4379999935626984)
(0.005896000191569328 -1.100000008591451e-05 0.4379999935626984)
(0.004184999968856573 -0.0009059999720193446 0.4379999935626984)
(0.006085999775677919 0.0009449999779462814 0.4379999935626984)
(-0.0009210000280290842 -0.007253999821841717 0.4379999935626984)
(0.0009190000128000975 -0.004172000102698803 0.4379999935626984)
(-0.007534000091254711 -0.01238899957388639 0.4379999935626984)
(0.008395999670028687 0.002489000093191862 0.4379999935626984)
(0.01238899957388639 0.007534000091254711 0.4379999935626984)
(0.0007280000136233866 -0.003215000033378601 0.4379999935626984)
(0.003227999899536371 -0.0007149999728426337 0.4379999935626984)
(-0.008361999876797199 -0.01184600032866001 0.4379999935626984)
(0.01184600032866001 0.008361999876797199 0.4379999935626984)
(-0.001462999964132905 -0.008065000176429749 0.4379999935626984)
(-0.00915099959820509 -0.01124799996614456 0.4379999935626984)
(0.01124799996614456 0.00915099959820509 0.4379999935626984)
(-0.009897000156342983 -0.01059699989855289 0.4379999935626984)
(0.01059699989855289 0.009897000156342983 0.4379999935626984)
(0.007439000066369772 0.00229800003580749 0.4379999935626984)
(-0.01059699989855289 -0.009897000156342983 0.4379999935626984)
(0.009897000156342983 0.01059699989855289 0.4379999935626984)
(0.002272000070661306 -0.0009059999720193446 0.4379999935626984)
(0.001460999948903918 -0.001446999958716333 0.4379999935626984)
(-0.0006580000044777989 0.0006890000076964498 0.4379999935626984)
(-0.0001160000028903596 0.001500000013038516 0.4379999935626984)
(0.0009190000128000975 -0.002258999971672893 0.4379999935626984)
(-0.001469000009819865 0.0001469999988330528 0.4379999935626984)
(-0.01124799996614456 -0.00915099959820509 0.4379999935626984)
(0.00915099959820509 0.01124799996614456 0.4379999935626984)
(7.400000322377309e-05 0.002456000074744225 0.4379999935626984)
(0.006628000177443027 0.001756999990902841 0.4379999935626984)
(-0.002426000079140067 -4.400000034365803e-05 0.4379999935626984)
(-0.01184600032866001 -0.008361999876797199 0.4379999935626984)
(0.008361999876797199 0.01184600032866001 0.4379999935626984)
(-0.003382999915629625 0.0001469999988330528 0.4379999935626984)
(-0.0001160000028903596 0.003412999911233783 0.4379999935626984)
(-0.01238899957388639 -0.007534000091254711 0.4379999935626984)
(0.007534000091254711 0.01238899957388639 0.4379999935626984)
(-0.0006580000044777989 0.004224000032991171 0.4379999935626984)
(-0.00419399980455637 0.0006890000076964498 0.4379999935626984)
(-0.01287399977445602 -0.006670999806374311 0.4379999935626984)
(0.006670999806374311 0.01287399977445602 0.4379999935626984)
(-0.01329999975860119 -0.005776999983936548 0.4379999935626984)
(0.005776999983936548 0.01329999975860119 0.4379999935626984)
(0.004856000188738108 0.01366300042718649 0.4379999935626984)
(-0.01366300042718649 -0.004856000188738108 0.4379999935626984)
(0.003911999985575676 0.01396199967712164 0.4379999935626984)
(-0.01396199967712164 -0.003911999985575676 0.4379999935626984)
(-0.001469000009819865 0.004765999969094992 0.4379999935626984)
(0.002950000111013651 0.01419700030237436 0.4379999935626984)
(-0.004736000206321478 0.001500000013038516 0.4379999935626984)
(-0.01419700030237436 -0.002950000111013651 0.4379999935626984)
(0.001973999897018075 0.0143649997189641 0.4379999935626984)
(-0.0143649997189641 -0.001973999897018075 0.4379999935626984)
(-0.014465999789536 -0.0009899999713525176 0.4379999935626984)
(0.0009899999713525176 0.014465999789536 0.4379999935626984)
(-0.01449999958276749 -0 0.4379999935626984)
(0 0.01449999958276749 0.4379999935626984)
(-0.014465999789536 0.0009899999713525176 0.4379999935626984)
(-0.0009899999713525176 0.014465999789536 0.4379999935626984)
(-0.0143649997189641 0.001973999897018075 0.4379999935626984)
(-0.004925999790430069 0.002456000074744225 0.4379999935626984)
(-0.001973999897018075 0.0143649997189641 0.4379999935626984)
(-0.002426000079140067 0.00495600001886487 0.4379999935626984)
(-0.01419700030237436 0.002950000111013651 0.4379999935626984)
(-0.002950000111013651 0.01419700030237436 0.4379999935626984)
(-0.003911999985575676 0.01396199967712164 0.4379999935626984)
(-0.01396199967712164 0.003911999985575676 0.4379999935626984)
(-0.004856000188738108 0.01366300042718649 0.4379999935626984)
(-0.01366300042718649 0.004856000188738108 0.4379999935626984)
(-0.005776999983936548 0.01329999975860119 0.4379999935626984)
(-0.003382999915629625 0.004765999969094992 0.4379999935626984)
(-0.01329999975860119 0.005776999983936548 0.4379999935626984)
(-0.004736000206321478 0.003412999911233783 0.4379999935626984)
(-0.01287399977445602 0.006670999806374311 0.4379999935626984)
(-0.006670999806374311 0.01287399977445602 0.4379999935626984)
(-0.01238899957388639 0.007534000091254711 0.4379999935626984)
(-0.007534000091254711 0.01238899957388639 0.4379999935626984)
(-0.008361999876797199 0.01184600032866001 0.4379999935626984)
(-0.01184600032866001 0.008361999876797199 0.4379999935626984)
(-0.00419399980455637 0.004224000032991171 0.4379999935626984)
(-0.00915099959820509 0.01124799996614456 0.4379999935626984)
(-0.01124799996614456 0.00915099959820509 0.4379999935626984)
(-0.01059699989855289 0.009897000156342983 0.4379999935626984)
(-0.009897000156342983 0.01059699989855289 0.4379999935626984)
)

// edges

156
(
(0 1)
(1 2)
(3 4)
(4 0)
(5 6)
(2 7)
(7 8)
(9 5)
(10 11)
(11 3)
(6 12)
(8 13)
(13 14)
(15 9)
(16 17)
(17 18)
(18 19)
(19 20)
(20 21)
(22 23)
(24 25)
(25 16)
(23 26)
(27 15)
(14 28)
(28 29)
(30 31)
(31 24)
(26 32)
(21 33)
(34 22)
(12 35)
(36 37)
(37 38)
(38 10)
(39 27)
(29 40)
(40 41)
(32 42)
(43 44)
(44 30)
(45 46)
(35 47)
(33 36)
(46 48)
(49 34)
(48 50)
(51 45)
(52 39)
(41 53)
(47 54)
(55 49)
(56 57)
(57 43)
(42 58)
(50 59)
(60 51)
(53 61)
(62 52)
(54 63)
(64 55)
(65 56)
(58 66)
(63 67)
(68 60)
(59 69)
(61 70)
(71 65)
(72 64)
(69 73)
(74 72)
(67 75)
(76 68)
(70 77)
(66 78)
(79 71)
(80 76)
(73 81)
(77 82)
(83 79)
(84 62)
(82 85)
(86 83)
(85 87)
(88 86)
(78 89)
(87 90)
(91 88)
(92 93)
(81 92)
(94 95)
(93 96)
(97 94)
(90 98)
(99 91)
(95 100)
(101 74)
(96 80)
(102 97)
(98 103)
(104 99)
(75 84)
(105 102)
(100 106)
(89 101)
(103 107)
(108 104)
(106 109)
(110 105)
(107 111)
(112 108)
(111 113)
(114 112)
(115 114)
(113 116)
(117 115)
(116 118)
(109 119)
(120 117)
(121 110)
(118 122)
(123 120)
(122 124)
(124 125)
(126 123)
(125 127)
(128 126)
(127 129)
(130 128)
(129 131)
(132 121)
(133 130)
(119 134)
(131 135)
(136 133)
(137 136)
(135 138)
(139 137)
(138 140)
(141 139)
(134 142)
(140 143)
(144 132)
(143 145)
(146 141)
(145 147)
(148 146)
(149 148)
(147 150)
(142 151)
(152 149)
(151 144)
(150 153)
(153 154)
(155 152)
(154 155)
)

// concaveStart mixedStart nonFeatureStart
0 0 0
// internalStart flatStart openStart multipleStart
0 0 0 156
// normals
156{(0 0 -1)}
// normal volume types

156
(
0
0
0
0
0
0
0
0
0
0
0
0
0
0
0
0
0
0
0
0
0
0
0
0
0
0
0
0
0
0
0
0
0
0
0
0
0
0
0
0
0
0
0
0
0
0
0
0
0
0
0
0
0
0
0
0
0
0
0
0
0
0
0
0
0
0
0
0
0
0
0
0
0
0
0
0
0
0
0
0
0
0
0
0
0
0
0
0
0
0
0
0
0
0
0
0
0
0
0
0
0
0
0
0
0
0
0
0
0
0
0
0
0
0
0
0
0
0
0
0
0
0
0
0
0
0
0
0
0
0
0
0
0
0
0
0
0
0
0
0
0
0
0
0
0
0
0
0
0
0
0
0
0
0
0
0
)

// normalDirections

156
(
1(1)
1(1)
1(1)
1(1)
1(1)
1(1)
1(1)
1(1)
1(1)
1(1)
1(1)
1(1)
1(1)
1(1)
1(1)
1(1)
1(1)
1(1)
1(1)
1(1)
1(1)
1(1)
1(1)
1(1)
1(1)
1(1)
1(1)
1(1)
1(1)
1(1)
1(1)
1(1)
1(1)
1(1)
1(1)
1(1)
1(1)
1(1)
1(1)
1(1)
1(1)
1(1)
1(1)
1(1)
1(1)
1(1)
1(1)
1(1)
1(1)
1(1)
1(1)
1(1)
1(1)
1(1)
1(1)
1(1)
1(1)
1(1)
1(1)
1(1)
1(1)
1(1)
1(1)
1(1)
1(1)
1(1)
1(1)
1(1)
1(1)
1(1)
1(1)
1(1)
1(1)
1(1)
1(1)
1(1)
1(1)
1(1)
1(1)
1(1)
1(1)
1(1)
1(1)
1(1)
1(1)
1(1)
1(1)
1(1)
1(1)
1(1)
1(1)
1(1)
1(1)
1(1)
1(1)
1(1)
1(1)
1(1)
1(1)
1(1)
1(1)
1(1)
1(1)
1(1)
1(1)
1(1)
1(1)
1(1)
1(1)
1(1)
1(1)
1(1)
1(1)
1(1)
1(1)
1(1)
1(1)
1(1)
1(1)
1(1)
1(1)
1(1)
1(1)
1(1)
1(1)
1(1)
1(1)
1(1)
1(1)
1(1)
1(1)
1(1)
1(1)
1(1)
1(1)
1(1)
1(1)
1(1)
1(1)
1(1)
1(1)
1(1)
1(1)
1(1)
1(1)
1(1)
1(1)
1(1)
1(1)
1(1)
1(1)
1(1)
1(1)
1(1)
1(1)
1(1)
)

// edgeNormals

156
(
1(0)
1(1)
1(2)
1(3)
1(4)
1(5)
1(6)
1(7)
1(8)
1(9)
1(10)
1(11)
1(12)
1(13)
1(14)
1(15)
1(16)
1(17)
1(18)
1(19)
1(20)
1(21)
1(22)
1(23)
1(24)
1(25)
1(26)
1(27)
1(28)
1(29)
1(30)
1(31)
1(32)
1(33)
1(34)
1(35)
1(36)
1(37)
1(38)
1(39)
1(40)
1(41)
1(42)
1(43)
1(44)
1(45)
1(46)
1(47)
1(48)
1(49)
1(50)
1(51)
1(52)
1(53)
1(54)
1(55)
1(56)
1(57)
1(58)
1(59)
1(60)
1(61)
1(62)
1(63)
1(64)
1(65)
1(66)
1(67)
1(68)
1(69)
1(70)
1(71)
1(72)
1(73)
1(74)
1(75)
1(76)
1(77)
1(78)
1(79)
1(80)
1(81)
1(82)
1(83)
1(84)
1(85)
1(86)
1(87)
1(88)
1(89)
1(90)
1(91)
1(92)
1(93)
1(94)
1(95)
1(96)
1(97)
1(98)
1(99)
1(100)
1(101)
1(102)
1(103)
1(104)
1(105)
1(106)
1(107)
1(108)
1(109)
1(110)
1(111)
1(112)
1(113)
1(114)
1(115)
1(116)
1(117)
1(118)
1(119)
1(120)
1(121)
1(122)
1(123)
1(124)
1(125)
1(126)
1(127)
1(128)
1(129)
1(130)
1(131)
1(132)
1(133)
1(134)
1(135)
1(136)
1(137)
1(138)
1(139)
1(140)
1(141)
1(142)
1(143)
1(144)
1(145)
1(146)
1(147)
1(148)
1(149)
1(150)
1(151)
1(152)
1(153)
1(154)
1(155)
)

// featurePointNormals
0()
// featurePointEdges
0()
// regionEdges

156
(
0
1
2
3
4
5
6
7
8
9
10
11
12
13
14
15
16
17
18
19
20
21
22
23
24
25
26
27
28
29
30
31
32
33
34
35
36
37
38
39
40
41
42
43
44
45
46
47
48
49
50
51
52
53
54
55
56
57
58
59
60
61
62
63
64
65
66
67
68
69
70
71
72
73
74
75
76
77
78
79
80
81
82
83
84
85
86
87
88
89
90
91
92
93
94
95
96
97
98
99
100
101
102
103
104
105
106
107
108
109
110
111
112
113
114
115
116
117
118
119
120
121
122
123
124
125
126
127
128
129
130
131
132
133
134
135
136
137
138
139
140
141
142
143
144
145
146
147
148
149
150
151
152
153
154
155
)



// ************************************************************************* //
