/*--------------------------------*- C++ -*----------------------------------*\
| =========                 |                                                 |
| \\      /  F ield         | OpenFOAM: The Open Source CFD Toolbox           |
|  \\    /   O peration     | Version:  2406                                  |
|   \\  /    A nd           | Website:  www.openfoam.com                      |
|    \\/     M anipulation  |                                                 |
\*---------------------------------------------------------------------------*/
FoamFile
{
    version     2.0;
    format      ascii;
    arch        "LSB;label=32;scalar=64";
    class       extendedFeatureEdgeMesh;
    location    "constant/extendedFeatureEdgeMesh";
    object      porous.extendedFeatureEdgeMesh;
}
// * * * * * * * * * * * * * * * * * * * * * * * * * * * * * * * * * * * * * //

// points

128
(
(0.0107049997895956 0.0009449999779462814 0.4379999935626984)
(0.01089600007981062 -1.100000008591451e-05 0.4379999935626984)
(0.01089600007981062 -1.100000008591451e-05 0.4350000023841858)
(0.0107049997895956 0.0009449999779462814 0.4350000023841858)
(0.005537999793887138 -0.002258999971672893 0.4379999935626984)
(0.005727999843657017 -0.003215000033378601 0.4379999935626984)
(0.005727999843657017 -0.003215000033378601 0.4350000023841858)
(0.005537999793887138 -0.002258999971672893 0.4350000023841858)
(-0.0001160000028903596 0.003412999911233783 0.4379999935626984)
(7.400000322377309e-05 0.002456000074744225 0.4379999935626984)
(7.400000322377309e-05 0.002456000074744225 0.4350000023841858)
(-0.0001160000028903596 0.003412999911233783 0.4350000023841858)
(0.003157000057399273 -0.008065000176429749 0.4379999935626984)
(0.003347000107169151 -0.009021000005304813 0.4379999935626984)
(0.003347000107169151 -0.009021000005304813 0.4350000023841858)
(0.003157000057399273 -0.008065000176429749 0.4350000023841858)
(0.002614999888464808 -0.007253999821841717 0.4350000023841858)
(0.002614999888464808 -0.007253999821841717 0.4379999935626984)
(0.001803999999538064 -0.006711999885737896 0.4350000023841858)
(0.001803999999538064 -0.006711999885737896 0.4379999935626984)
(0.000846999988425523 -0.006521000061184168 0.4350000023841858)
(0.000846999988425523 -0.006521000061184168 0.4379999935626984)
(-0.0001100000008591451 -0.006711999885737896 0.4350000023841858)
(-0.0001100000008591451 -0.006711999885737896 0.4379999935626984)
(-0.0009210000280290842 -0.007253999821841717 0.4350000023841858)
(-0.0009210000280290842 -0.007253999821841717 0.4379999935626984)
(-0.001462999964132905 -0.008065000176429749 0.4350000023841858)
(-0.001462999964132905 -0.008065000176429749 0.4379999935626984)
(-0.001653000013902783 -0.009021000005304813 0.4350000023841858)
(-0.001653000013902783 -0.009021000005304813 0.4379999935626984)
(-0.001462999964132905 -0.009978000074625015 0.4350000023841858)
(-0.001462999964132905 -0.009978000074625015 0.4379999935626984)
(-0.0009210000280290842 -0.01078900042921305 0.4350000023841858)
(-0.0009210000280290842 -0.01078900042921305 0.4379999935626984)
(-0.0001100000008591451 -0.01133100036531687 0.4350000023841858)
(-0.0001100000008591451 -0.01133100036531687 0.4379999935626984)
(0.000846999988425523 -0.01152100041508675 0.4350000023841858)
(0.000846999988425523 -0.01152100041508675 0.4379999935626984)
(0.001803999999538064 -0.01133100036531687 0.4350000023841858)
(0.001803999999538064 -0.01133100036531687 0.4379999935626984)
(0.002614999888464808 -0.01078900042921305 0.4350000023841858)
(0.002614999888464808 -0.01078900042921305 0.4379999935626984)
(0.003157000057399273 -0.009978000074625015 0.4350000023841858)
(0.003157000057399273 -0.009978000074625015 0.4379999935626984)
(-0.0006580000044777989 0.004224000032991171 0.4350000023841858)
(-0.0006580000044777989 0.004224000032991171 0.4379999935626984)
(-0.001469000009819865 0.004765999969094992 0.4350000023841858)
(-0.001469000009819865 0.004765999969094992 0.4379999935626984)
(-0.002426000079140067 0.00495600001886487 0.4350000023841858)
(-0.002426000079140067 0.00495600001886487 0.4379999935626984)
(-0.003382999915629625 0.004765999969094992 0.4350000023841858)
(-0.003382999915629625 0.004765999969094992 0.4379999935626984)
(-0.00419399980455637 0.004224000032991171 0.4350000023841858)
(-0.00419399980455637 0.004224000032991171 0.4379999935626984)
(-0.004736000206321478 0.003412999911233783 0.4350000023841858)
(-0.004736000206321478 0.003412999911233783 0.4379999935626984)
(-0.004925999790430069 0.002456000074744225 0.4350000023841858)
(-0.004925999790430069 0.002456000074744225 0.4379999935626984)
(-0.004736000206321478 0.001500000013038516 0.4350000023841858)
(-0.004736000206321478 0.001500000013038516 0.4379999935626984)
(-0.00419399980455637 0.0006890000076964498 0.4350000023841858)
(-0.00419399980455637 0.0006890000076964498 0.4379999935626984)
(-0.003382999915629625 0.0001469999988330528 0.4350000023841858)
(-0.003382999915629625 0.0001469999988330528 0.4379999935626984)
(-0.002426000079140067 -4.400000034365803e-05 0.4350000023841858)
(-0.002426000079140067 -4.400000034365803e-05 0.4379999935626984)
(-0.001469000009819865 0.0001469999988330528 0.4350000023841858)
(-0.001469000009819865 0.0001469999988330528 0.4379999935626984)
(-0.0006580000044777989 0.0006890000076964498 0.4350000023841858)
(-0.0006580000044777989 0.0006890000076964498 0.4379999935626984)
(-0.0001160000028903596 0.001500000013038516 0.4350000023841858)
(-0.0001160000028903596 0.001500000013038516 0.4379999935626984)
(0.004995999857783318 -0.001446999958716333 0.4350000023841858)
(0.004995999857783318 -0.001446999958716333 0.4379999935626984)
(0.004184999968856573 -0.0009059999720193446 0.4350000023841858)
(0.004184999968856573 -0.0009059999720193446 0.4379999935626984)
(0.003227999899536371 -0.0007149999728426337 0.4350000023841858)
(0.003227999899536371 -0.0007149999728426337 0.4379999935626984)
(0.002272000070661306 -0.0009059999720193446 0.4350000023841858)
(0.002272000070661306 -0.0009059999720193446 0.4379999935626984)
(0.001460999948903918 -0.001446999958716333 0.4350000023841858)
(0.001460999948903918 -0.001446999958716333 0.4379999935626984)
(0.0009190000128000975 -0.002258999971672893 0.4350000023841858)
(0.0009190000128000975 -0.002258999971672893 0.4379999935626984)
(0.0007280000136233866 -0.003215000033378601 0.4350000023841858)
(0.0007280000136233866 -0.003215000033378601 0.4379999935626984)
(0.0009190000128000975 -0.004172000102698803 0.4350000023841858)
(0.0009190000128000975 -0.004172000102698803 0.4379999935626984)
(0.001460999948903918 -0.004982999991625547 0.4350000023841858)
(0.001460999948903918 -0.004982999991625547 0.4379999935626984)
(0.002272000070661306 -0.005524999927729368 0.4350000023841858)
(0.002272000070661306 -0.005524999927729368 0.4379999935626984)
(0.003227999899536371 -0.005714999977499247 0.4350000023841858)
(0.003227999899536371 -0.005714999977499247 0.4379999935626984)
(0.004184999968856573 -0.005524999927729368 0.4350000023841858)
(0.004184999968856573 -0.005524999927729368 0.4379999935626984)
(0.004995999857783318 -0.004982999991625547 0.4350000023841858)
(0.004995999857783318 -0.004982999991625547 0.4379999935626984)
(0.005537999793887138 -0.004172000102698803 0.4350000023841858)
(0.005537999793887138 -0.004172000102698803 0.4379999935626984)
(0.01016299985349178 0.001756999990902841 0.4350000023841858)
(0.01016299985349178 0.001756999990902841 0.4379999935626984)
(0.009352000430226326 0.00229800003580749 0.4350000023841858)
(0.009352000430226326 0.00229800003580749 0.4379999935626984)
(0.008395999670028687 0.002489000093191862 0.4350000023841858)
(0.008395999670028687 0.002489000093191862 0.4379999935626984)
(0.007439000066369772 0.00229800003580749 0.4350000023841858)
(0.007439000066369772 0.00229800003580749 0.4379999935626984)
(0.006628000177443027 0.001756999990902841 0.4350000023841858)
(0.006628000177443027 0.001756999990902841 0.4379999935626984)
(0.006085999775677919 0.0009449999779462814 0.4350000023841858)
(0.006085999775677919 0.0009449999779462814 0.4379999935626984)
(0.005896000191569328 -1.100000008591451e-05 0.4350000023841858)
(0.005896000191569328 -1.100000008591451e-05 0.4379999935626984)
(0.006085999775677919 -0.0009679999784566462 0.4350000023841858)
(0.006085999775677919 -0.0009679999784566462 0.4379999935626984)
(0.006628000177443027 -0.001779000042006373 0.4350000023841858)
(0.006628000177443027 -0.001779000042006373 0.4379999935626984)
(0.007439000066369772 -0.002320999978110194 0.4350000023841858)
(0.007439000066369772 -0.002320999978110194 0.4379999935626984)
(0.008395999670028687 -0.002511000027880073 0.4350000023841858)
(0.008395999670028687 -0.002511000027880073 0.4379999935626984)
(0.009352000430226326 -0.002320999978110194 0.4350000023841858)
(0.009352000430226326 -0.002320999978110194 0.4379999935626984)
(0.01016299985349178 -0.001779000042006373 0.4350000023841858)
(0.01016299985349178 -0.001779000042006373 0.4379999935626984)
(0.0107049997895956 -0.0009679999784566462 0.4350000023841858)
(0.0107049997895956 -0.0009679999784566462 0.4379999935626984)
)

// edges

128
(
(0 1)
(2 3)
(4 5)
(6 7)
(8 9)
(10 11)
(12 13)
(14 15)
(15 16)
(17 12)
(16 18)
(19 17)
(18 20)
(21 19)
(20 22)
(23 21)
(22 24)
(25 23)
(24 26)
(27 25)
(26 28)
(29 27)
(28 30)
(31 29)
(30 32)
(33 31)
(32 34)
(35 33)
(34 36)
(37 35)
(36 38)
(39 37)
(38 40)
(41 39)
(40 42)
(43 41)
(13 43)
(42 14)
(11 44)
(45 8)
(44 46)
(47 45)
(46 48)
(49 47)
(48 50)
(51 49)
(50 52)
(53 51)
(52 54)
(55 53)
(54 56)
(57 55)
(56 58)
(59 57)
(58 60)
(61 59)
(60 62)
(63 61)
(62 64)
(65 63)
(64 66)
(67 65)
(66 68)
(69 67)
(68 70)
(71 69)
(9 71)
(70 10)
(7 72)
(73 4)
(72 74)
(75 73)
(74 76)
(77 75)
(76 78)
(79 77)
(78 80)
(81 79)
(80 82)
(83 81)
(82 84)
(85 83)
(84 86)
(87 85)
(86 88)
(89 87)
(88 90)
(91 89)
(90 92)
(93 91)
(92 94)
(95 93)
(94 96)
(97 95)
(96 98)
(99 97)
(5 99)
(98 6)
(3 100)
(101 0)
(100 102)
(103 101)
(102 104)
(105 103)
(104 106)
(107 105)
(106 108)
(109 107)
(108 110)
(111 109)
(110 112)
(113 111)
(112 114)
(115 113)
(114 116)
(117 115)
(116 118)
(119 117)
(118 120)
(121 119)
(120 122)
(123 121)
(122 124)
(125 123)
(124 126)
(127 125)
(1 127)
(126 2)
)

// concaveStart mixedStart nonFeatureStart
0 0 0
// internalStart flatStart openStart multipleStart
0 0 0 128
// normals

128
(
(0.9806200498403572 0.1959191615210093 0)
(0.9806200498403572 0.1959191615210093 0)
(0.9808167135166367 0.1949322304967135 0)
(0.9808167135166367 0.1949322304967135 0)
(0.9808556395163959 0.1947362689097284 0)
(0.9808556395163959 0.1947362689097284 0)
(0.9808167044397371 0.1949322761678361 0)
(0.9808167044397371 0.1949322761678361 0)
(0.8314189100184526 0.5556461068555489 0)
(0.8314189100184526 0.5556461068555489 0)
(0.5556461623974303 0.8314188728992197 0)
(0.5556461623974303 0.8314188728992197 -0)
(0.1957218201808409 0.9806594562360058 0)
(0.1957218201808409 0.9806594562360058 -0)
(-0.1957218244739821 0.9806594553791727 0)
(-0.1957218244739821 0.9806594553791727 0)
(-0.5556460969246168 0.8314189166554002 0)
(-0.5556460969246168 0.8314189166554002 0)
(-0.8314190202883981 0.555645941857475 0)
(-0.8314190202883981 0.555645941857475 0)
(-0.9808167044397371 0.1949322761678361 0)
(-0.9808167044397371 0.1949322761678361 0)
(-0.9808556400194811 -0.1947362663757681 -0)
(-0.9808556400194811 -0.1947362663757681 0)
(-0.8314190202883981 -0.555645941857475 -0)
(-0.8314190202883981 -0.555645941857475 0)
(-0.5556460969246168 -0.8314189166554002 0)
(-0.5556460969246168 -0.8314189166554002 0)
(-0.1947362820442866 -0.9808556369086983 0)
(-0.1947362820442866 -0.9808556369086983 0)
(0.1947362777710541 -0.9808556377570937 0)
(0.1947362777710541 -0.9808556377570937 0)
(0.5556461623974303 -0.8314188728992197 0)
(0.5556461623974303 -0.8314188728992197 0)
(0.8314189100184526 -0.5556461068555489 0)
(0.8314189100184526 -0.5556461068555489 0)
(0.9808556400194811 -0.1947362663757681 0)
(0.9808556400194811 -0.1947362663757681 0)
(0.8314189155803995 0.5556460985331516 0)
(0.8314189155803995 0.5556460985331516 0)
(0.5556461072624287 0.8314189097465307 0)
(0.5556461072624287 0.8314189097465307 -0)
(0.1947362663757681 0.9808556400194811 0)
(0.1947362663757681 0.9808556400194811 -0)
(-0.1947363119569199 0.9808556309699289 0)
(-0.1947363119569199 0.9808556309699289 0)
(-0.5556461623974303 0.8314188728992197 0)
(-0.5556461623974303 0.8314188728992197 0)
(-0.8314187260538685 0.5556463821235251 0)
(-0.8314187260538685 0.5556463821235251 0)
(-0.9808557221321543 0.1947358527868197 0)
(-0.9808557221321543 0.1947358527868197 0)
(-0.9808168048587615 -0.1949317709011285 -0)
(-0.9808168048587615 -0.1949317709011285 0)
(-0.8314186892065343 -0.5556464372585217 -0)
(-0.8314186892065343 -0.5556464372585217 0)
(-0.5556462139593377 -0.8314188384398408 0)
(-0.5556462139593377 -0.8314188384398408 0)
(-0.1957220266114318 -0.9806594150361857 0)
(-0.1957220266114318 -0.9806594150361857 0)
(0.1957219808178847 -0.980659424175755 0)
(0.1957219808178847 -0.980659424175755 0)
(0.5556461588243355 -0.8314188752871572 0)
(0.5556461588243355 -0.8314188752871572 0)
(0.8314188787330945 -0.5556461536681451 0)
(0.8314188787330945 -0.5556461536681451 0)
(0.9808167220799694 -0.1949321874096329 0)
(0.9808167220799694 -0.1949321874096329 0)
(0.8317350238291314 0.55517281105612 0)
(0.8317350238291314 0.55517281105612 0)
(0.554936931088128 0.8318924224408407 0)
(0.554936931088128 0.8318924224408407 -0)
(0.1957219808178847 0.980659424175755 0)
(0.1957219808178847 0.980659424175755 -0)
(-0.1959189038408757 0.9806201013225202 0)
(-0.1959189038408757 0.9806201013225202 0)
(-0.554936820833395 0.8318924959893101 0)
(-0.554936820833395 0.8318924959893101 0)
(-0.8317350238291314 0.55517281105612 0)
(-0.8317350238291314 0.55517281105612 0)
(-0.9806201104896978 0.1959188579569942 0)
(-0.9806201104896978 0.1959188579569942 0)
(-0.980659424175755 -0.1957219808178847 -0)
(-0.980659424175755 -0.1957219808178847 0)
(-0.8314188728992197 -0.5556461623974303 -0)
(-0.8314188728992197 -0.5556461623974303 0)
(-0.5556460521274356 -0.8314189465938309 0)
(-0.5556460521274356 -0.8314189465938309 0)
(-0.1949322761678361 -0.9808167044397371 0)
(-0.1949322761678361 -0.9808167044397371 0)
(0.1947362663757681 -0.9808556400194811 0)
(0.1947362663757681 -0.9808556400194811 0)
(0.5556461623974303 -0.8314188728992197 0)
(0.5556461623974303 -0.8314188728992197 0)
(0.8314188728992197 -0.5556461623974303 0)
(0.8314188728992197 -0.5556461623974303 0)
(0.9808556400194811 -0.1947362663757681 0)
(0.9808556400194811 -0.1947362663757681 0)
(0.8317350238291314 0.55517281105612 0)
(0.8317350238291314 0.55517281105612 0)
(0.5549371929177478 0.8318922477800658 0)
(0.5549371929177478 0.8318922477800658 -0)
(0.195918777720338 0.9806201265202386 0)
(0.195918777720338 0.9806201265202386 -0)
(-0.195722129766827 0.9806593944482137 0)
(-0.195722129766827 0.9806593944482137 0)
(-0.5549369724081779 0.8318923948771532 0)
(-0.5549369724081779 0.8318923948771532 0)
(-0.8317348035809756 0.5551731410218943 0)
(-0.8317348035809756 0.5551731410218943 0)
(-0.9808168015967664 0.19493178731415 0)
(-0.9808168015967664 0.19493178731415 0)
(-0.9808557276467006 -0.1947358250108631 -0)
(-0.9808557276467006 -0.1947358250108631 0)
(-0.8314187076302028 -0.5556464096910223 -0)
(-0.8314187076302028 -0.5556464096910223 0)
(-0.5556461623974303 -0.8314188728992197 0)
(-0.5556461623974303 -0.8314188728992197 0)
(-0.1947363575380927 -0.9808556219203702 0)
(-0.1947363575380927 -0.9808556219203702 0)
(0.1949320934834718 -0.9808167407472973 0)
(0.1949320934834718 -0.9808167407472973 0)
(0.5556463829375214 -0.8314187255098656 0)
(0.5556463829375214 -0.8314187255098656 0)
(0.8314189281701821 -0.5556460796949311 0)
(0.8314189281701821 -0.5556460796949311 0)
(0.980659363363642 -0.1957222855150028 0)
(0.980659363363642 -0.1957222855150028 0)
)

// normal volume types

128
(
0
0
0
0
0
0
0
0
0
0
0
0
0
0
0
0
0
0
0
0
0
0
0
0
0
0
0
0
0
0
0
0
0
0
0
0
0
0
0
0
0
0
0
0
0
0
0
0
0
0
0
0
0
0
0
0
0
0
0
0
0
0
0
0
0
0
0
0
0
0
0
0
0
0
0
0
0
0
0
0
0
0
0
0
0
0
0
0
0
0
0
0
0
0
0
0
0
0
0
0
0
0
0
0
0
0
0
0
0
0
0
0
0
0
0
0
0
0
0
0
0
0
0
0
0
0
0
0
)

// normalDirections

128
(
1(1)
1(1)
1(1)
1(1)
1(1)
1(1)
1(1)
1(1)
1(1)
1(1)
1(1)
1(1)
1(1)
1(1)
1(1)
1(1)
1(1)
1(1)
1(1)
1(1)
1(1)
1(1)
1(1)
1(1)
1(1)
1(1)
1(1)
1(1)
1(1)
1(1)
1(1)
1(1)
1(1)
1(1)
1(1)
1(1)
1(1)
1(1)
1(1)
1(1)
1(1)
1(1)
1(1)
1(1)
1(1)
1(1)
1(1)
1(1)
1(1)
1(1)
1(1)
1(1)
1(1)
1(1)
1(1)
1(1)
1(1)
1(1)
1(1)
1(1)
1(1)
1(1)
1(1)
1(1)
1(1)
1(1)
1(1)
1(1)
1(1)
1(1)
1(1)
1(1)
1(1)
1(1)
1(1)
1(1)
1(1)
1(1)
1(1)
1(1)
1(1)
1(1)
1(1)
1(1)
1(1)
1(1)
1(1)
1(1)
1(1)
1(1)
1(1)
1(1)
1(1)
1(1)
1(1)
1(1)
1(1)
1(1)
1(1)
1(1)
1(1)
1(1)
1(1)
1(1)
1(1)
1(1)
1(1)
1(1)
1(1)
1(1)
1(1)
1(1)
1(1)
1(1)
1(1)
1(1)
1(1)
1(1)
1(1)
1(1)
1(1)
1(1)
1(1)
1(1)
1(1)
1(1)
1(1)
1(1)
)

// edgeNormals

128
(
1(0)
1(1)
1(2)
1(3)
1(4)
1(5)
1(6)
1(7)
1(8)
1(9)
1(10)
1(11)
1(12)
1(13)
1(14)
1(15)
1(16)
1(17)
1(18)
1(19)
1(20)
1(21)
1(22)
1(23)
1(24)
1(25)
1(26)
1(27)
1(28)
1(29)
1(30)
1(31)
1(32)
1(33)
1(34)
1(35)
1(36)
1(37)
1(38)
1(39)
1(40)
1(41)
1(42)
1(43)
1(44)
1(45)
1(46)
1(47)
1(48)
1(49)
1(50)
1(51)
1(52)
1(53)
1(54)
1(55)
1(56)
1(57)
1(58)
1(59)
1(60)
1(61)
1(62)
1(63)
1(64)
1(65)
1(66)
1(67)
1(68)
1(69)
1(70)
1(71)
1(72)
1(73)
1(74)
1(75)
1(76)
1(77)
1(78)
1(79)
1(80)
1(81)
1(82)
1(83)
1(84)
1(85)
1(86)
1(87)
1(88)
1(89)
1(90)
1(91)
1(92)
1(93)
1(94)
1(95)
1(96)
1(97)
1(98)
1(99)
1(100)
1(101)
1(102)
1(103)
1(104)
1(105)
1(106)
1(107)
1(108)
1(109)
1(110)
1(111)
1(112)
1(113)
1(114)
1(115)
1(116)
1(117)
1(118)
1(119)
1(120)
1(121)
1(122)
1(123)
1(124)
1(125)
1(126)
1(127)
)

// featurePointNormals
0()
// featurePointEdges
0()
// regionEdges

128
(
0
1
2
3
4
5
6
7
8
9
10
11
12
13
14
15
16
17
18
19
20
21
22
23
24
25
26
27
28
29
30
31
32
33
34
35
36
37
38
39
40
41
42
43
44
45
46
47
48
49
50
51
52
53
54
55
56
57
58
59
60
61
62
63
64
65
66
67
68
69
70
71
72
73
74
75
76
77
78
79
80
81
82
83
84
85
86
87
88
89
90
91
92
93
94
95
96
97
98
99
100
101
102
103
104
105
106
107
108
109
110
111
112
113
114
115
116
117
118
119
120
121
122
123
124
125
126
127
)



// ************************************************************************* //
