/*--------------------------------*- C++ -*----------------------------------*\
| =========                 |                                                 |
| \\      /  F ield         | OpenFOAM: The Open Source CFD Toolbox           |
|  \\    /   O peration     | Version:  2406                                  |
|   \\  /    A nd           | Website:  www.openfoam.com                      |
|    \\/     M anipulation  |                                                 |
\*---------------------------------------------------------------------------*/
FoamFile
{
    version     2.0;
    format      ascii;
    arch        "LSB;label=32;scalar=64";
    class       extendedFeatureEdgeMesh;
    location    "constant/extendedFeatureEdgeMesh";
    object      wall_outlet.extendedFeatureEdgeMesh;
}
// * * * * * * * * * * * * * * * * * * * * * * * * * * * * * * * * * * * * * //

// points

184
(
(0.014465999789536 0.0009899999713525176 0.8730000257492065)
(0.01449999958276749 0 0.8730000257492065)
(0.01449999958276749 0 0.4379999935626984)
(0.014465999789536 0.0009899999713525176 0.4379999935626984)
(0.0143649997189641 0.001973999897018075 0.4379999935626984)
(0.0143649997189641 0.001973999897018075 0.8730000257492065)
(0.01419700030237436 0.002950000111013651 0.4379999935626984)
(0.01419700030237436 0.002950000111013651 0.8730000257492065)
(0.01396199967712164 0.003911999985575676 0.8730000257492065)
(0.01396199967712164 0.003911999985575676 0.4379999935626984)
(0.01366300042718649 0.004856000188738108 0.8730000257492065)
(0.01366300042718649 0.004856000188738108 0.4379999935626984)
(0.01329999975860119 0.005776999983936548 0.8730000257492065)
(0.01329999975860119 0.005776999983936548 0.4379999935626984)
(0.01287399977445602 0.006670999806374311 0.8730000257492065)
(0.01287399977445602 0.006670999806374311 0.4379999935626984)
(0.01238899957388639 0.007534000091254711 0.4379999935626984)
(0.01238899957388639 0.007534000091254711 0.8730000257492065)
(0.01184600032866001 0.008361999876797199 0.4379999935626984)
(0.01184600032866001 0.008361999876797199 0.8730000257492065)
(0.01124799996614456 0.00915099959820509 0.4379999935626984)
(0.01124799996614456 0.00915099959820509 0.8730000257492065)
(0.01059699989855289 0.009897000156342983 0.4379999935626984)
(0.01059699989855289 0.009897000156342983 0.8730000257492065)
(0.009897000156342983 0.01059699989855289 0.4379999935626984)
(0.009897000156342983 0.01059699989855289 0.8730000257492065)
(0.00915099959820509 0.01124799996614456 0.4379999935626984)
(0.00915099959820509 0.01124799996614456 0.8730000257492065)
(0.008361999876797199 0.01184600032866001 0.4379999935626984)
(0.008361999876797199 0.01184600032866001 0.8730000257492065)
(0.007534000091254711 0.01238899957388639 0.4379999935626984)
(0.007534000091254711 0.01238899957388639 0.8730000257492065)
(0.006670999806374311 0.01287399977445602 0.4379999935626984)
(0.006670999806374311 0.01287399977445602 0.8730000257492065)
(0.005776999983936548 0.01329999975860119 0.4379999935626984)
(0.005776999983936548 0.01329999975860119 0.8730000257492065)
(0.004856000188738108 0.01366300042718649 0.4379999935626984)
(0.004856000188738108 0.01366300042718649 0.8730000257492065)
(0.003911999985575676 0.01396199967712164 0.4379999935626984)
(0.003911999985575676 0.01396199967712164 0.8730000257492065)
(0.002950000111013651 0.01419700030237436 0.4379999935626984)
(0.002950000111013651 0.01419700030237436 0.8730000257492065)
(0.001973999897018075 0.0143649997189641 0.4379999935626984)
(0.001973999897018075 0.0143649997189641 0.8730000257492065)
(0.0009899999713525176 0.014465999789536 0.4379999935626984)
(0.0009899999713525176 0.014465999789536 0.8730000257492065)
(0 0.01449999958276749 0.4379999935626984)
(0 0.01449999958276749 0.8730000257492065)
(-0.0009899999713525176 0.014465999789536 0.4379999935626984)
(-0.0009899999713525176 0.014465999789536 0.8730000257492065)
(-0.001973999897018075 0.0143649997189641 0.4379999935626984)
(-0.001973999897018075 0.0143649997189641 0.8730000257492065)
(-0.002950000111013651 0.01419700030237436 0.4379999935626984)
(-0.002950000111013651 0.01419700030237436 0.8730000257492065)
(-0.003911999985575676 0.01396199967712164 0.4379999935626984)
(-0.003911999985575676 0.01396199967712164 0.8730000257492065)
(-0.004856000188738108 0.01366300042718649 0.4379999935626984)
(-0.004856000188738108 0.01366300042718649 0.8730000257492065)
(-0.005776999983936548 0.01329999975860119 0.4379999935626984)
(-0.005776999983936548 0.01329999975860119 0.8730000257492065)
(-0.006670999806374311 0.01287399977445602 0.4379999935626984)
(-0.006670999806374311 0.01287399977445602 0.8730000257492065)
(-0.007534000091254711 0.01238899957388639 0.8730000257492065)
(-0.007534000091254711 0.01238899957388639 0.4379999935626984)
(-0.008361999876797199 0.01184600032866001 0.4379999935626984)
(-0.008361999876797199 0.01184600032866001 0.8730000257492065)
(-0.00915099959820509 0.01124799996614456 0.8730000257492065)
(-0.00915099959820509 0.01124799996614456 0.4379999935626984)
(-0.009897000156342983 0.01059699989855289 0.8730000257492065)
(-0.009897000156342983 0.01059699989855289 0.4379999935626984)
(-0.01059699989855289 0.009897000156342983 0.8730000257492065)
(-0.01059699989855289 0.009897000156342983 0.4379999935626984)
(-0.01124799996614456 0.00915099959820509 0.4379999935626984)
(-0.01124799996614456 0.00915099959820509 0.8730000257492065)
(-0.01184600032866001 0.008361999876797199 0.4379999935626984)
(-0.01184600032866001 0.008361999876797199 0.8730000257492065)
(-0.01238899957388639 0.007534000091254711 0.4379999935626984)
(-0.01238899957388639 0.007534000091254711 0.8730000257492065)
(-0.01287399977445602 0.006670999806374311 0.4379999935626984)
(-0.01287399977445602 0.006670999806374311 0.8730000257492065)
(-0.01329999975860119 0.005776999983936548 0.4379999935626984)
(-0.01329999975860119 0.005776999983936548 0.8730000257492065)
(-0.01366300042718649 0.004856000188738108 0.4379999935626984)
(-0.01366300042718649 0.004856000188738108 0.8730000257492065)
(-0.01396199967712164 0.003911999985575676 0.4379999935626984)
(-0.01396199967712164 0.003911999985575676 0.8730000257492065)
(-0.01419700030237436 0.002950000111013651 0.4379999935626984)
(-0.01419700030237436 0.002950000111013651 0.8730000257492065)
(-0.0143649997189641 0.001973999897018075 0.4379999935626984)
(-0.0143649997189641 0.001973999897018075 0.8730000257492065)
(-0.014465999789536 0.0009899999713525176 0.4379999935626984)
(-0.014465999789536 0.0009899999713525176 0.8730000257492065)
(-0.01449999958276749 -0 0.4379999935626984)
(-0.01449999958276749 -0 0.8730000257492065)
(-0.014465999789536 -0.0009899999713525176 0.4379999935626984)
(-0.014465999789536 -0.0009899999713525176 0.8730000257492065)
(-0.0143649997189641 -0.001973999897018075 0.4379999935626984)
(-0.0143649997189641 -0.001973999897018075 0.8730000257492065)
(-0.01419700030237436 -0.002950000111013651 0.4379999935626984)
(-0.01419700030237436 -0.002950000111013651 0.8730000257492065)
(-0.01396199967712164 -0.003911999985575676 0.4379999935626984)
(-0.01396199967712164 -0.003911999985575676 0.8730000257492065)
(-0.01366300042718649 -0.004856000188738108 0.4379999935626984)
(-0.01366300042718649 -0.004856000188738108 0.8730000257492065)
(-0.01329999975860119 -0.005776999983936548 0.4379999935626984)
(-0.01329999975860119 -0.005776999983936548 0.8730000257492065)
(-0.01287399977445602 -0.006670999806374311 0.4379999935626984)
(-0.01287399977445602 -0.006670999806374311 0.8730000257492065)
(-0.01238899957388639 -0.007534000091254711 0.8730000257492065)
(-0.01238899957388639 -0.007534000091254711 0.4379999935626984)
(-0.01184600032866001 -0.008361999876797199 0.8730000257492065)
(-0.01184600032866001 -0.008361999876797199 0.4379999935626984)
(-0.01124799996614456 -0.00915099959820509 0.8730000257492065)
(-0.01124799996614456 -0.00915099959820509 0.4379999935626984)
(-0.01059699989855289 -0.009897000156342983 0.8730000257492065)
(-0.01059699989855289 -0.009897000156342983 0.4379999935626984)
(-0.009897000156342983 -0.01059699989855289 0.4379999935626984)
(-0.009897000156342983 -0.01059699989855289 0.8730000257492065)
(-0.00915099959820509 -0.01124799996614456 0.8730000257492065)
(-0.00915099959820509 -0.01124799996614456 0.4379999935626984)
(-0.008361999876797199 -0.01184600032866001 0.8730000257492065)
(-0.008361999876797199 -0.01184600032866001 0.4379999935626984)
(-0.007534000091254711 -0.01238899957388639 0.8730000257492065)
(-0.007534000091254711 -0.01238899957388639 0.4379999935626984)
(-0.006670999806374311 -0.01287399977445602 0.8730000257492065)
(-0.006670999806374311 -0.01287399977445602 0.4379999935626984)
(-0.005776999983936548 -0.01329999975860119 0.4379999935626984)
(-0.005776999983936548 -0.01329999975860119 0.8730000257492065)
(-0.004856000188738108 -0.01366300042718649 0.8730000257492065)
(-0.004856000188738108 -0.01366300042718649 0.4379999935626984)
(-0.003911999985575676 -0.01396199967712164 0.8730000257492065)
(-0.003911999985575676 -0.01396199967712164 0.4379999935626984)
(-0.002950000111013651 -0.01419700030237436 0.4379999935626984)
(-0.002950000111013651 -0.01419700030237436 0.8730000257492065)
(-0.001973999897018075 -0.0143649997189641 0.8730000257492065)
(-0.001973999897018075 -0.0143649997189641 0.4379999935626984)
(-0.0009899999713525176 -0.014465999789536 0.4379999935626984)
(-0.0009899999713525176 -0.014465999789536 0.8730000257492065)
(0 -0.01449999958276749 0.8730000257492065)
(0 -0.01449999958276749 0.4379999935626984)
(0.0009899999713525176 -0.014465999789536 0.4379999935626984)
(0.0009899999713525176 -0.014465999789536 0.8730000257492065)
(0.001973999897018075 -0.0143649997189641 0.4379999935626984)
(0.001973999897018075 -0.0143649997189641 0.8730000257492065)
(0.002950000111013651 -0.01419700030237436 0.4379999935626984)
(0.002950000111013651 -0.01419700030237436 0.8730000257492065)
(0.003911999985575676 -0.01396199967712164 0.4379999935626984)
(0.003911999985575676 -0.01396199967712164 0.8730000257492065)
(0.004856000188738108 -0.01366300042718649 0.4379999935626984)
(0.004856000188738108 -0.01366300042718649 0.8730000257492065)
(0.005776999983936548 -0.01329999975860119 0.4379999935626984)
(0.005776999983936548 -0.01329999975860119 0.8730000257492065)
(0.006670999806374311 -0.01287399977445602 0.4379999935626984)
(0.006670999806374311 -0.01287399977445602 0.8730000257492065)
(0.007534000091254711 -0.01238899957388639 0.4379999935626984)
(0.007534000091254711 -0.01238899957388639 0.8730000257492065)
(0.008361999876797199 -0.01184600032866001 0.4379999935626984)
(0.008361999876797199 -0.01184600032866001 0.8730000257492065)
(0.00915099959820509 -0.01124799996614456 0.8730000257492065)
(0.00915099959820509 -0.01124799996614456 0.4379999935626984)
(0.009897000156342983 -0.01059699989855289 0.8730000257492065)
(0.009897000156342983 -0.01059699989855289 0.4379999935626984)
(0.01059699989855289 -0.009897000156342983 0.8730000257492065)
(0.01059699989855289 -0.009897000156342983 0.4379999935626984)
(0.01124799996614456 -0.00915099959820509 0.8730000257492065)
(0.01124799996614456 -0.00915099959820509 0.4379999935626984)
(0.01184600032866001 -0.008361999876797199 0.8730000257492065)
(0.01184600032866001 -0.008361999876797199 0.4379999935626984)
(0.01238899957388639 -0.007534000091254711 0.8730000257492065)
(0.01238899957388639 -0.007534000091254711 0.4379999935626984)
(0.01287399977445602 -0.006670999806374311 0.8730000257492065)
(0.01287399977445602 -0.006670999806374311 0.4379999935626984)
(0.01329999975860119 -0.005776999983936548 0.8730000257492065)
(0.01329999975860119 -0.005776999983936548 0.4379999935626984)
(0.01366300042718649 -0.004856000188738108 0.8730000257492065)
(0.01366300042718649 -0.004856000188738108 0.4379999935626984)
(0.01396199967712164 -0.003911999985575676 0.8730000257492065)
(0.01396199967712164 -0.003911999985575676 0.4379999935626984)
(0.01419700030237436 -0.002950000111013651 0.8730000257492065)
(0.01419700030237436 -0.002950000111013651 0.4379999935626984)
(0.0143649997189641 -0.001973999897018075 0.8730000257492065)
(0.0143649997189641 -0.001973999897018075 0.4379999935626984)
(0.014465999789536 -0.0009899999713525176 0.8730000257492065)
(0.014465999789536 -0.0009899999713525176 0.4379999935626984)
)

// edges

184
(
(0 1)
(2 3)
(3 4)
(5 0)
(4 6)
(7 5)
(8 7)
(6 9)
(10 8)
(9 11)
(12 10)
(11 13)
(14 12)
(13 15)
(15 16)
(17 14)
(16 18)
(19 17)
(18 20)
(21 19)
(20 22)
(23 21)
(22 24)
(25 23)
(24 26)
(27 25)
(26 28)
(29 27)
(28 30)
(31 29)
(30 32)
(33 31)
(32 34)
(35 33)
(34 36)
(37 35)
(36 38)
(39 37)
(38 40)
(41 39)
(40 42)
(43 41)
(42 44)
(45 43)
(44 46)
(47 45)
(46 48)
(49 47)
(48 50)
(51 49)
(50 52)
(53 51)
(52 54)
(55 53)
(54 56)
(57 55)
(56 58)
(59 57)
(58 60)
(61 59)
(62 61)
(60 63)
(63 64)
(65 62)
(66 65)
(64 67)
(68 66)
(67 69)
(70 68)
(69 71)
(71 72)
(73 70)
(72 74)
(75 73)
(74 76)
(77 75)
(76 78)
(79 77)
(78 80)
(81 79)
(80 82)
(83 81)
(82 84)
(85 83)
(84 86)
(87 85)
(86 88)
(89 87)
(88 90)
(91 89)
(90 92)
(93 91)
(92 94)
(95 93)
(94 96)
(97 95)
(96 98)
(99 97)
(98 100)
(101 99)
(100 102)
(103 101)
(102 104)
(105 103)
(104 106)
(107 105)
(108 107)
(106 109)
(110 108)
(109 111)
(112 110)
(111 113)
(114 112)
(113 115)
(115 116)
(117 114)
(118 117)
(116 119)
(120 118)
(119 121)
(122 120)
(121 123)
(124 122)
(123 125)
(125 126)
(127 124)
(128 127)
(126 129)
(130 128)
(129 131)
(131 132)
(133 130)
(134 133)
(132 135)
(135 136)
(137 134)
(138 137)
(136 139)
(139 140)
(141 138)
(140 142)
(143 141)
(142 144)
(145 143)
(144 146)
(147 145)
(146 148)
(149 147)
(148 150)
(151 149)
(150 152)
(153 151)
(152 154)
(155 153)
(154 156)
(157 155)
(158 157)
(156 159)
(160 158)
(159 161)
(162 160)
(161 163)
(164 162)
(163 165)
(166 164)
(165 167)
(168 166)
(167 169)
(170 168)
(169 171)
(172 170)
(171 173)
(174 172)
(173 175)
(176 174)
(175 177)
(178 176)
(177 179)
(180 178)
(179 181)
(182 180)
(181 183)
(1 182)
(183 2)
)

// concaveStart mixedStart nonFeatureStart
0 0 0
// internalStart flatStart openStart multipleStart
0 0 0 184
// normals

184
(
(0.9994107925549934 0.03432299119540796 0)
(0.9994107925549934 0.03432299119540796 0)
(0.9947735347060443 0.1021058991853185 0)
(0.9947735347060443 0.1021058991853185 0)
(0.9855068226019662 0.1696357939969531 0)
(0.9855068226019662 0.1696357939969531 0)
(0.971435075127615 0.2373054883726986 0)
(0.971435075127615 0.2373054883726986 0)
(0.9533230835745672 0.3019521457514066 0)
(0.9533230835745672 0.3019521457514066 0)
(0.9303454886688513 0.36668415798002 0)
(0.9303454886688513 0.36668415798002 0)
(0.9027484702016368 0.4301688035511227 0)
(0.9027484702016368 0.4301688035511227 0)
(0.8717642971591678 0.4899255149495505 0)
(0.8717642971591678 0.4899255149495505 0)
(0.8362218750057766 0.5483912615658855 0)
(0.8362218750057766 0.5483912615658855 0)
(0.7969592538284878 0.6040330684135927 0)
(0.7969592538284878 0.6040330684135927 0)
(0.7534521586481506 0.6575027335520681 0)
(0.7534521586481506 0.6575027335520681 0)
(0.7071067811865476 0.7071067811865476 0)
(0.7071067811865476 0.7071067811865476 -0)
(0.6575027335520681 0.7534521586481506 0)
(0.6575027335520681 0.7534521586481506 -0)
(0.6040330684135927 0.7969592538284878 0)
(0.6040330684135927 0.7969592538284878 -0)
(0.5483912615658855 0.8362218750057766 0)
(0.5483912615658855 0.8362218750057766 -0)
(0.4899255149495505 0.8717642971591678 0)
(0.4899255149495505 0.8717642971591678 -0)
(0.4301688035511227 0.9027484702016368 0)
(0.4301688035511227 0.9027484702016368 -0)
(0.36668415798002 0.9303454886688513 0)
(0.36668415798002 0.9303454886688513 -0)
(0.3019521457514066 0.9533230835745672 0)
(0.3019521457514066 0.9533230835745672 -0)
(0.2373054883726986 0.971435075127615 0)
(0.2373054883726986 0.971435075127615 -0)
(0.1696357939969531 0.9855068226019662 0)
(0.1696357939969531 0.9855068226019662 -0)
(0.1021058991853185 0.9947735347060443 0)
(0.1021058991853185 0.9947735347060443 -0)
(0.03432299119540796 0.9994107925549934 0)
(0.03432299119540796 0.9994107925549934 -0)
(-0.03432299119540796 0.9994107925549934 0)
(-0.03432299119540796 0.9994107925549934 0)
(-0.1021058991853185 0.9947735347060443 0)
(-0.1021058991853185 0.9947735347060443 0)
(-0.1696357939969531 0.9855068226019662 0)
(-0.1696357939969531 0.9855068226019662 0)
(-0.2373054883726986 0.971435075127615 0)
(-0.2373054883726986 0.971435075127615 0)
(-0.3019521457514066 0.9533230835745672 0)
(-0.3019521457514066 0.9533230835745672 0)
(-0.36668415798002 0.9303454886688513 0)
(-0.36668415798002 0.9303454886688513 0)
(-0.4301688035511227 0.9027484702016368 0)
(-0.4301688035511227 0.9027484702016368 0)
(-0.4899255149495505 0.8717642971591678 0)
(-0.4899255149495505 0.8717642971591678 0)
(-0.5483912615658855 0.8362218750057766 0)
(-0.5483912615658855 0.8362218750057766 0)
(-0.6040330684135927 0.7969592538284878 0)
(-0.6040330684135927 0.7969592538284878 0)
(-0.6575027335520681 0.7534521586481506 0)
(-0.6575027335520681 0.7534521586481506 0)
(-0.7071067811865476 0.7071067811865476 0)
(-0.7071067811865476 0.7071067811865476 0)
(-0.7534521586481506 0.6575027335520681 0)
(-0.7534521586481506 0.6575027335520681 0)
(-0.7969592538284878 0.6040330684135927 0)
(-0.7969592538284878 0.6040330684135927 0)
(-0.8362218750057766 0.5483912615658855 0)
(-0.8362218750057766 0.5483912615658855 0)
(-0.8717642971591678 0.4899255149495505 0)
(-0.8717642971591678 0.4899255149495505 0)
(-0.9027484702016368 0.4301688035511227 0)
(-0.9027484702016368 0.4301688035511227 0)
(-0.9303454886688513 0.36668415798002 0)
(-0.9303454886688513 0.36668415798002 0)
(-0.9533230835745672 0.3019521457514066 0)
(-0.9533230835745672 0.3019521457514066 0)
(-0.971435075127615 0.2373054883726986 0)
(-0.971435075127615 0.2373054883726986 0)
(-0.9855068226019662 0.1696357939969531 0)
(-0.9855068226019662 0.1696357939969531 0)
(-0.9947735347060443 0.1021058991853185 0)
(-0.9947735347060443 0.1021058991853185 0)
(-0.9994107925549934 0.03432299119540796 0)
(-0.9994107925549934 0.03432299119540796 0)
(-0.9994107925549934 -0.03432299119540796 -0)
(-0.9994107925549934 -0.03432299119540796 0)
(-0.9947735347060443 -0.1021058991853185 -0)
(-0.9947735347060443 -0.1021058991853185 0)
(-0.9855068226019662 -0.1696357939969531 -0)
(-0.9855068226019662 -0.1696357939969531 0)
(-0.971435075127615 -0.2373054883726986 -0)
(-0.971435075127615 -0.2373054883726986 0)
(-0.9533230835745672 -0.3019521457514066 -0)
(-0.9533230835745672 -0.3019521457514066 0)
(-0.9303454886688513 -0.36668415798002 -0)
(-0.9303454886688513 -0.36668415798002 0)
(-0.9027484702016368 -0.4301688035511227 -0)
(-0.9027484702016368 -0.4301688035511227 0)
(-0.8717642971591678 -0.4899255149495505 0)
(-0.8717642971591678 -0.4899255149495505 -0)
(-0.8362218750057766 -0.5483912615658855 0)
(-0.8362218750057766 -0.5483912615658855 -0)
(-0.7969592538284878 -0.6040330684135927 0)
(-0.7969592538284878 -0.6040330684135927 -0)
(-0.7534521586481506 -0.6575027335520681 0)
(-0.7534521586481506 -0.6575027335520681 -0)
(-0.7071067811865476 -0.7071067811865476 0)
(-0.7071067811865476 -0.7071067811865476 0)
(-0.6575027335520681 -0.7534521586481506 0)
(-0.6575027335520681 -0.7534521586481506 0)
(-0.6040330684135927 -0.7969592538284878 0)
(-0.6040330684135927 -0.7969592538284878 0)
(-0.5483912615658855 -0.8362218750057766 0)
(-0.5483912615658855 -0.8362218750057766 0)
(-0.4899255149495505 -0.8717642971591678 0)
(-0.4899255149495505 -0.8717642971591678 0)
(-0.4301688035511227 -0.9027484702016368 0)
(-0.4301688035511227 -0.9027484702016368 0)
(-0.36668415798002 -0.9303454886688513 0)
(-0.36668415798002 -0.9303454886688513 0)
(-0.3019521457514066 -0.9533230835745672 0)
(-0.3019521457514066 -0.9533230835745672 0)
(-0.2373054883726986 -0.971435075127615 0)
(-0.2373054883726986 -0.971435075127615 0)
(-0.1696357939969531 -0.9855068226019662 0)
(-0.1696357939969531 -0.9855068226019662 0)
(-0.1021058991853185 -0.9947735347060443 0)
(-0.1021058991853185 -0.9947735347060443 0)
(-0.03432299119540796 -0.9994107925549934 0)
(-0.03432299119540796 -0.9994107925549934 0)
(0.03432299119540796 -0.9994107925549934 0)
(0.03432299119540796 -0.9994107925549934 0)
(0.1021058991853185 -0.9947735347060443 0)
(0.1021058991853185 -0.9947735347060443 0)
(0.1696357939969531 -0.9855068226019662 0)
(0.1696357939969531 -0.9855068226019662 0)
(0.2373054883726986 -0.971435075127615 0)
(0.2373054883726986 -0.971435075127615 0)
(0.3019521457514066 -0.9533230835745672 0)
(0.3019521457514066 -0.9533230835745672 0)
(0.36668415798002 -0.9303454886688513 0)
(0.36668415798002 -0.9303454886688513 0)
(0.4301688035511227 -0.9027484702016368 0)
(0.4301688035511227 -0.9027484702016368 0)
(0.4899255149495505 -0.8717642971591678 0)
(0.4899255149495505 -0.8717642971591678 0)
(0.5483912615658855 -0.8362218750057766 0)
(0.5483912615658855 -0.8362218750057766 0)
(0.6040330684135927 -0.7969592538284878 0)
(0.6040330684135927 -0.7969592538284878 0)
(0.6575027335520681 -0.7534521586481506 0)
(0.6575027335520681 -0.7534521586481506 0)
(0.7071067811865476 -0.7071067811865476 0)
(0.7071067811865476 -0.7071067811865476 0)
(0.7534521586481506 -0.6575027335520681 0)
(0.7534521586481506 -0.6575027335520681 0)
(0.7969592538284878 -0.6040330684135927 0)
(0.7969592538284878 -0.6040330684135927 0)
(0.8362218750057766 -0.5483912615658855 0)
(0.8362218750057766 -0.5483912615658855 0)
(0.8717642971591678 -0.4899255149495505 0)
(0.8717642971591678 -0.4899255149495505 0)
(0.9027484702016368 -0.4301688035511227 0)
(0.9027484702016368 -0.4301688035511227 0)
(0.9303454886688513 -0.36668415798002 0)
(0.9303454886688513 -0.36668415798002 0)
(0.9533230835745672 -0.3019521457514066 0)
(0.9533230835745672 -0.3019521457514066 0)
(0.971435075127615 -0.2373054883726986 0)
(0.971435075127615 -0.2373054883726986 0)
(0.9855068226019662 -0.1696357939969531 0)
(0.9855068226019662 -0.1696357939969531 0)
(0.9947735347060443 -0.1021058991853185 0)
(0.9947735347060443 -0.1021058991853185 0)
(0.9994107925549934 -0.03432299119540796 0)
(0.9994107925549934 -0.03432299119540796 0)
)

// normal volume types

184
(
0
0
0
0
0
0
0
0
0
0
0
0
0
0
0
0
0
0
0
0
0
0
0
0
0
0
0
0
0
0
0
0
0
0
0
0
0
0
0
0
0
0
0
0
0
0
0
0
0
0
0
0
0
0
0
0
0
0
0
0
0
0
0
0
0
0
0
0
0
0
0
0
0
0
0
0
0
0
0
0
0
0
0
0
0
0
0
0
0
0
0
0
0
0
0
0
0
0
0
0
0
0
0
0
0
0
0
0
0
0
0
0
0
0
0
0
0
0
0
0
0
0
0
0
0
0
0
0
0
0
0
0
0
0
0
0
0
0
0
0
0
0
0
0
0
0
0
0
0
0
0
0
0
0
0
0
0
0
0
0
0
0
0
0
0
0
0
0
0
0
0
0
0
0
0
0
0
0
0
0
0
0
0
0
)

// normalDirections

184
(
1(1)
1(1)
1(1)
1(1)
1(1)
1(1)
1(1)
1(1)
1(1)
1(1)
1(1)
1(1)
1(1)
1(1)
1(1)
1(1)
1(1)
1(1)
1(1)
1(1)
1(1)
1(1)
1(1)
1(1)
1(1)
1(1)
1(1)
1(1)
1(1)
1(1)
1(1)
1(1)
1(1)
1(1)
1(1)
1(1)
1(1)
1(1)
1(1)
1(1)
1(1)
1(1)
1(1)
1(1)
1(1)
1(1)
1(1)
1(1)
1(1)
1(1)
1(1)
1(1)
1(1)
1(1)
1(1)
1(1)
1(1)
1(1)
1(1)
1(1)
1(1)
1(1)
1(1)
1(1)
1(1)
1(1)
1(1)
1(1)
1(1)
1(1)
1(1)
1(1)
1(1)
1(1)
1(1)
1(1)
1(1)
1(1)
1(1)
1(1)
1(1)
1(1)
1(1)
1(1)
1(1)
1(1)
1(1)
1(1)
1(1)
1(1)
1(1)
1(1)
1(1)
1(1)
1(1)
1(1)
1(1)
1(1)
1(1)
1(1)
1(1)
1(1)
1(1)
1(1)
1(1)
1(1)
1(1)
1(1)
1(1)
1(1)
1(1)
1(1)
1(1)
1(1)
1(1)
1(1)
1(1)
1(1)
1(1)
1(1)
1(1)
1(1)
1(1)
1(1)
1(1)
1(1)
1(1)
1(1)
1(1)
1(1)
1(1)
1(1)
1(1)
1(1)
1(1)
1(1)
1(1)
1(1)
1(1)
1(1)
1(1)
1(1)
1(1)
1(1)
1(1)
1(1)
1(1)
1(1)
1(1)
1(1)
1(1)
1(1)
1(1)
1(1)
1(1)
1(1)
1(1)
1(1)
1(1)
1(1)
1(1)
1(1)
1(1)
1(1)
1(1)
1(1)
1(1)
1(1)
1(1)
1(1)
1(1)
1(1)
1(1)
1(1)
1(1)
1(1)
1(1)
1(1)
1(1)
1(1)
1(1)
1(1)
1(1)
1(1)
)

// edgeNormals

184
(
1(0)
1(1)
1(2)
1(3)
1(4)
1(5)
1(6)
1(7)
1(8)
1(9)
1(10)
1(11)
1(12)
1(13)
1(14)
1(15)
1(16)
1(17)
1(18)
1(19)
1(20)
1(21)
1(22)
1(23)
1(24)
1(25)
1(26)
1(27)
1(28)
1(29)
1(30)
1(31)
1(32)
1(33)
1(34)
1(35)
1(36)
1(37)
1(38)
1(39)
1(40)
1(41)
1(42)
1(43)
1(44)
1(45)
1(46)
1(47)
1(48)
1(49)
1(50)
1(51)
1(52)
1(53)
1(54)
1(55)
1(56)
1(57)
1(58)
1(59)
1(60)
1(61)
1(62)
1(63)
1(64)
1(65)
1(66)
1(67)
1(68)
1(69)
1(70)
1(71)
1(72)
1(73)
1(74)
1(75)
1(76)
1(77)
1(78)
1(79)
1(80)
1(81)
1(82)
1(83)
1(84)
1(85)
1(86)
1(87)
1(88)
1(89)
1(90)
1(91)
1(92)
1(93)
1(94)
1(95)
1(96)
1(97)
1(98)
1(99)
1(100)
1(101)
1(102)
1(103)
1(104)
1(105)
1(106)
1(107)
1(108)
1(109)
1(110)
1(111)
1(112)
1(113)
1(114)
1(115)
1(116)
1(117)
1(118)
1(119)
1(120)
1(121)
1(122)
1(123)
1(124)
1(125)
1(126)
1(127)
1(128)
1(129)
1(130)
1(131)
1(132)
1(133)
1(134)
1(135)
1(136)
1(137)
1(138)
1(139)
1(140)
1(141)
1(142)
1(143)
1(144)
1(145)
1(146)
1(147)
1(148)
1(149)
1(150)
1(151)
1(152)
1(153)
1(154)
1(155)
1(156)
1(157)
1(158)
1(159)
1(160)
1(161)
1(162)
1(163)
1(164)
1(165)
1(166)
1(167)
1(168)
1(169)
1(170)
1(171)
1(172)
1(173)
1(174)
1(175)
1(176)
1(177)
1(178)
1(179)
1(180)
1(181)
1(182)
1(183)
)

// featurePointNormals
0()
// featurePointEdges
0()
// regionEdges

184
(
0
1
2
3
4
5
6
7
8
9
10
11
12
13
14
15
16
17
18
19
20
21
22
23
24
25
26
27
28
29
30
31
32
33
34
35
36
37
38
39
40
41
42
43
44
45
46
47
48
49
50
51
52
53
54
55
56
57
58
59
60
61
62
63
64
65
66
67
68
69
70
71
72
73
74
75
76
77
78
79
80
81
82
83
84
85
86
87
88
89
90
91
92
93
94
95
96
97
98
99
100
101
102
103
104
105
106
107
108
109
110
111
112
113
114
115
116
117
118
119
120
121
122
123
124
125
126
127
128
129
130
131
132
133
134
135
136
137
138
139
140
141
142
143
144
145
146
147
148
149
150
151
152
153
154
155
156
157
158
159
160
161
162
163
164
165
166
167
168
169
170
171
172
173
174
175
176
177
178
179
180
181
182
183
)



// ************************************************************************* //
